 xtb: 6.7.1 (edcfbbe)
          04112515593D

 20 19  0     0  0            999 V2000
   -3.9287    0.0873   -0.2959 C   0  0  0  0  0  0  0  0  0  0  0  0
   -2.7001   -0.2562    0.5376 C   0  0  0  0  0  0  0  0  0  0  0  0
   -1.4079    0.0782   -0.2031 C   0  0  0  0  0  0  0  0  0  0  0  0
   -0.1740   -0.2600    0.6284 C   0  0  0  0  0  0  0  0  0  0  0  0
    1.1069    0.0213   -0.1104 C   0  0  0  0  0  0  0  0  0  0  0  0
    1.1959    0.3456   -1.2749 O   0  0  0  0  0  0  0  0  0  0  0  0
    2.1663   -0.1353    0.6813 O   0  0  0  0  0  0  0  0  0  0  0  0
    3.4574    0.0857    0.1068 C   0  0  0  0  0  0  0  0  0  0  0  0
   -3.9218   -0.4688   -1.2304 H   0  0  0  0  0  0  0  0  0  0  0  0
   -4.8386   -0.1590    0.2453 H   0  0  0  0  0  0  0  0  0  0  0  0
   -3.9441    1.1489   -0.5315 H   0  0  0  0  0  0  0  0  0  0  0  0
   -2.7318    0.3000    1.4765 H   0  0  0  0  0  0  0  0  0  0  0  0
   -2.7125   -1.3207    0.7795 H   0  0  0  0  0  0  0  0  0  0  0  0
   -1.3903    1.1405   -0.4545 H   0  0  0  0  0  0  0  0  0  0  0  0
   -1.3653   -0.4749   -1.1435 H   0  0  0  0  0  0  0  0  0  0  0  0
   -0.1711   -1.3195    0.8947 H   0  0  0  0  0  0  0  0  0  0  0  0
   -0.1583    0.3076    1.5602 H   0  0  0  0  0  0  0  0  0  0  0  0
    4.1639   -0.0312    0.9222 H   0  0  0  0  0  0  0  0  0  0  0  0
    3.5097    1.0883   -0.3190 H   0  0  0  0  0  0  0  0  0  0  0  0
    3.6441   -0.6446   -0.6814 H   0  0  0  0  0  0  0  0  0  0  0  0
  1  2  1  0  0  0  0
  2  3  1  0  0  0  0
  3  4  1  0  0  0  0
  4  5  1  0  0  0  0
  5  6  2  0  0  0  0
  5  7  1  0  0  0  0
  7  8  1  0  0  0  0
  1  9  1  0  0  0  0
  1 10  1  0  0  0  0
  1 11  1  0  0  0  0
  2 12  1  0  0  0  0
  2 13  1  0  0  0  0
  3 14  1  0  0  0  0
  3 15  1  0  0  0  0
  4 16  1  0  0  0  0
  4 17  1  0  0  0  0
  8 18  1  0  0  0  0
  8 19  1  0  0  0  0
  8 20  1  0  0  0  0
M  END
