 xtb: 6.7.1 (edcfbbe)
          04112515533D

 20 19  0     0  0            999 V2000
   -2.2681   -1.2761    0.6949 C   0  0  0  0  0  0  0  0  0  0  0  0
   -2.5133    0.0292   -0.0522 C   0  0  0  0  0  0  0  0  0  0  0  0
   -1.3377    0.3849   -0.9698 C   0  0  0  0  0  0  0  0  0  0  0  0
   -0.1037    0.6791   -0.1567 C   0  0  0  0  0  0  0  0  0  0  0  0
   -0.0200    1.5433    0.6926 O   0  0  0  0  0  0  0  0  0  0  0  0
    0.8973   -0.1309   -0.4690 O   0  0  0  0  0  0  0  0  0  0  0  0
    2.1403    0.0244    0.2364 C   0  0  0  0  0  0  0  0  0  0  0  0
    3.0131   -1.1772   -0.0704 C   0  0  0  0  0  0  0  0  0  0  0  0
   -3.1269   -1.5262    1.3120 H   0  0  0  0  0  0  0  0  0  0  0  0
   -2.0941   -2.0900   -0.0047 H   0  0  0  0  0  0  0  0  0  0  0  0
   -1.3974   -1.1863    1.3418 H   0  0  0  0  0  0  0  0  0  0  0  0
   -2.6559    0.8417    0.6629 H   0  0  0  0  0  0  0  0  0  0  0  0
   -3.4158   -0.0585   -0.6577 H   0  0  0  0  0  0  0  0  0  0  0  0
   -1.5817    1.2837   -1.5378 H   0  0  0  0  0  0  0  0  0  0  0  0
   -1.1170   -0.4328   -1.6546 H   0  0  0  0  0  0  0  0  0  0  0  0
    2.6072    0.9579   -0.0941 H   0  0  0  0  0  0  0  0  0  0  0  0
    1.9235    0.1115    1.3063 H   0  0  0  0  0  0  0  0  0  0  0  0
    3.1911   -1.2422   -1.1397 H   0  0  0  0  0  0  0  0  0  0  0  0
    3.9616   -1.0736    0.4461 H   0  0  0  0  0  0  0  0  0  0  0  0
    2.5230   -2.0886    0.2590 H   0  0  0  0  0  0  0  0  0  0  0  0
  1  2  1  0  0  0  0
  2  3  1  0  0  0  0
  3  4  1  0  0  0  0
  4  5  2  0  0  0  0
  4  6  1  0  0  0  0
  6  7  1  0  0  0  0
  7  8  1  0  0  0  0
  1  9  1  0  0  0  0
  1 10  1  0  0  0  0
  1 11  1  0  0  0  0
  2 12  1  0  0  0  0
  2 13  1  0  0  0  0
  3 14  1  0  0  0  0
  3 15  1  0  0  0  0
  7 16  1  0  0  0  0
  7 17  1  0  0  0  0
  8 18  1  0  0  0  0
  8 19  1  0  0  0  0
  8 20  1  0  0  0  0
M  END
