 xtb: 6.7.1 (edcfbbe)
          04112515533D

 20 19  0     0  0            999 V2000
   -3.4342   -0.9664    0.3058 C   0  0  0  0  0  0  0  0  0  0  0  0
   -2.0865   -0.6244   -0.3165 C   0  0  0  0  0  0  0  0  0  0  0  0
   -1.2951    0.3456    0.5739 C   0  0  0  0  0  0  0  0  0  0  0  0
    0.0156    0.6704   -0.0898 C   0  0  0  0  0  0  0  0  0  0  0  0
    0.2089    1.6281   -0.8118 O   0  0  0  0  0  0  0  0  0  0  0  0
    0.9356   -0.2427    0.1815 O   0  0  0  0  0  0  0  0  0  0  0  0
    2.2439   -0.1104   -0.4009 C   0  0  0  0  0  0  0  0  0  0  0  0
    3.2661   -0.6697    0.5716 C   0  0  0  0  0  0  0  0  0  0  0  0
   -3.9787   -1.6534   -0.3360 H   0  0  0  0  0  0  0  0  0  0  0  0
   -3.2967   -1.4347    1.2768 H   0  0  0  0  0  0  0  0  0  0  0  0
   -4.0324   -0.0683    0.4365 H   0  0  0  0  0  0  0  0  0  0  0  0
   -2.2362   -0.1652   -1.2960 H   0  0  0  0  0  0  0  0  0  0  0  0
   -1.5016   -1.5354   -0.4551 H   0  0  0  0  0  0  0  0  0  0  0  0
   -1.1008   -0.1204    1.5390 H   0  0  0  0  0  0  0  0  0  0  0  0
   -1.8582    1.2689    0.7060 H   0  0  0  0  0  0  0  0  0  0  0  0
    2.2451   -0.6689   -1.3418 H   0  0  0  0  0  0  0  0  0  0  0  0
    2.4210    0.9476   -0.6190 H   0  0  0  0  0  0  0  0  0  0  0  0
    3.2534   -0.1029    1.4983 H   0  0  0  0  0  0  0  0  0  0  0  0
    3.0368   -1.7079    0.7924 H   0  0  0  0  0  0  0  0  0  0  0  0
    4.2545   -0.6065    0.1283 H   0  0  0  0  0  0  0  0  0  0  0  0
  1  2  1  0  0  0  0
  2  3  1  0  0  0  0
  3  4  1  0  0  0  0
  4  5  2  0  0  0  0
  4  6  1  0  0  0  0
  6  7  1  0  0  0  0
  7  8  1  0  0  0  0
  1  9  1  0  0  0  0
  1 10  1  0  0  0  0
  1 11  1  0  0  0  0
  2 12  1  0  0  0  0
  2 13  1  0  0  0  0
  3 14  1  0  0  0  0
  3 15  1  0  0  0  0
  7 16  1  0  0  0  0
  7 17  1  0  0  0  0
  8 18  1  0  0  0  0
  8 19  1  0  0  0  0
  8 20  1  0  0  0  0
M  END
