 xtb: 6.7.1 (edcfbbe)
          04112515563D

 33 35  0     0  0            999 V2000
   -4.5498   -1.0915   -0.3639 C   0  0  0  0  0  0  0  0  0  0  0  0
   -3.8128   -2.2568   -0.2038 C   0  0  0  0  0  0  0  0  0  0  0  0
   -2.4445   -2.1908   -0.0179 C   0  0  0  0  0  0  0  0  0  0  0  0
   -1.7880   -0.9620    0.0115 C   0  0  0  0  0  0  0  0  0  0  0  0
   -2.5328    0.2114   -0.1500 C   0  0  0  0  0  0  0  0  0  0  0  0
   -3.9118    0.1341   -0.3369 C   0  0  0  0  0  0  0  0  0  0  0  0
   -1.8771    1.5242   -0.1262 C   0  0  0  0  0  0  0  0  0  0  0  0
   -2.5169    2.5647   -0.2674 O   0  0  0  0  0  0  0  0  0  0  0  0
   -0.4174    1.5358    0.0757 C   0  0  0  0  0  0  0  0  0  0  0  0
    0.1988    2.7746    0.0903 C   0  0  0  0  0  0  0  0  0  0  0  0
    1.5758    2.8735    0.2732 C   0  0  0  0  0  0  0  0  0  0  0  0
    2.3299    1.7455    0.4490 C   0  0  0  0  0  0  0  0  0  0  0  0
    1.7467    0.4543    0.4485 C   0  0  0  0  0  0  0  0  0  0  0  0
    0.3324    0.3473    0.2474 C   0  0  0  0  0  0  0  0  0  0  0  0
   -0.3258   -0.9405    0.2131 C   0  0  0  0  0  0  0  0  0  0  0  0
    0.2754   -2.0236    0.3388 O   0  0  0  0  0  0  0  0  0  0  0  0
    2.4797   -0.6496    0.6366 N   0  0  0  0  0  0  0  0  0  0  0  0
    3.9006   -0.7869    0.8246 C   0  0  0  0  0  0  0  0  0  0  0  0
    4.5219   -1.6402   -0.2938 C   0  0  0  0  0  0  0  0  0  0  0  0
    4.5837   -0.9627   -1.5284 O   0  0  0  0  0  0  0  0  0  0  0  0
   -5.6175   -1.1403   -0.5092 H   0  0  0  0  0  0  0  0  0  0  0  0
   -4.3060   -3.2159   -0.2242 H   0  0  0  0  0  0  0  0  0  0  0  0
   -1.8544   -3.0864    0.1086 H   0  0  0  0  0  0  0  0  0  0  0  0
   -4.4592    1.0571   -0.4588 H   0  0  0  0  0  0  0  0  0  0  0  0
   -0.4130    3.6530   -0.0452 H   0  0  0  0  0  0  0  0  0  0  0  0
    2.0461    3.8440    0.2772 H   0  0  0  0  0  0  0  0  0  0  0  0
    3.3930    1.8458    0.5870 H   0  0  0  0  0  0  0  0  0  0  0  0
    1.9493   -1.5213    0.6209 H   0  0  0  0  0  0  0  0  0  0  0  0
    4.0843   -1.2880    1.7794 H   0  0  0  0  0  0  0  0  0  0  0  0
    4.3927    0.1834    0.8360 H   0  0  0  0  0  0  0  0  0  0  0  0
    3.9635   -2.5790   -0.3955 H   0  0  0  0  0  0  0  0  0  0  0  0
    5.5569   -1.8709   -0.0361 H   0  0  0  0  0  0  0  0  0  0  0  0
    3.6864   -0.8028   -1.8497 H   0  0  0  0  0  0  0  0  0  0  0  0
  1  2  4  0  0  0  0
  2  3  4  0  0  0  0
  3  4  4  0  0  0  0
  4  5  4  0  0  0  0
  1  6  4  0  0  0  0
  5  6  4  0  0  0  0
  5  7  1  0  0  0  0
  7  8  2  0  0  0  0
  7  9  1  0  0  0  0
  9 10  4  0  0  0  0
 10 11  4  0  0  0  0
 11 12  2  0  0  0  0
 12 13  4  0  0  0  0
  9 14  4  0  0  0  0
 13 14  4  0  0  0  0
  4 15  1  0  0  0  0
 14 15  1  0  0  0  0
 15 16  2  0  0  0  0
 13 17  4  0  0  0  0
 17 18  1  0  0  0  0
 18 19  1  0  0  0  0
 19 20  1  0  0  0  0
  1 21  1  0  0  0  0
  2 22  1  0  0  0  0
  3 23  1  0  0  0  0
  6 24  1  0  0  0  0
 10 25  1  0  0  0  0
 11 26  1  0  0  0  0
 12 27  1  0  0  0  0
 17 28  1  0  0  0  0
 18 29  1  0  0  0  0
 18 30  1  0  0  0  0
 19 31  1  0  0  0  0
 19 32  1  0  0  0  0
 20 33  1  0  0  0  0
M  END
