 xtb: 6.7.1 (edcfbbe)
          04112515533D

 20 19  0     0  0            999 V2000
   -3.5102   -0.7091    0.4631 C   0  0  0  0  0  0  0  0  0  0  0  0
   -2.1518   -0.0318    0.5912 C   0  0  0  0  0  0  0  0  0  0  0  0
   -1.2347   -0.4025   -0.5839 C   0  0  0  0  0  0  0  0  0  0  0  0
    0.0915    0.2891   -0.4188 C   0  0  0  0  0  0  0  0  0  0  0  0
    0.3985    1.3367   -0.9498 O   0  0  0  0  0  0  0  0  0  0  0  0
    0.8772   -0.3669    0.4253 O   0  0  0  0  0  0  0  0  0  0  0  0
    2.1723    0.1788    0.7265 C   0  0  0  0  0  0  0  0  0  0  0  0
    3.2149   -0.3100   -0.2672 C   0  0  0  0  0  0  0  0  0  0  0  0
   -4.0022   -0.4057   -0.4574 H   0  0  0  0  0  0  0  0  0  0  0  0
   -3.3966   -1.7899    0.4544 H   0  0  0  0  0  0  0  0  0  0  0  0
   -4.1454   -0.4345    1.3007 H   0  0  0  0  0  0  0  0  0  0  0  0
   -1.6729   -0.3365    1.5235 H   0  0  0  0  0  0  0  0  0  0  0  0
   -2.2795    1.0526    0.6143 H   0  0  0  0  0  0  0  0  0  0  0  0
   -1.6837   -0.0786   -1.5224 H   0  0  0  0  0  0  0  0  0  0  0  0
   -1.0749   -1.4800   -0.5946 H   0  0  0  0  0  0  0  0  0  0  0  0
    2.1040    1.2708    0.7084 H   0  0  0  0  0  0  0  0  0  0  0  0
    2.3916   -0.1714    1.7357 H   0  0  0  0  0  0  0  0  0  0  0  0
    4.1918    0.0616    0.0243 H   0  0  0  0  0  0  0  0  0  0  0  0
    3.2339   -1.3963   -0.2850 H   0  0  0  0  0  0  0  0  0  0  0  0
    2.9803    0.0569   -1.2639 H   0  0  0  0  0  0  0  0  0  0  0  0
  1  2  1  0  0  0  0
  2  3  1  0  0  0  0
  3  4  1  0  0  0  0
  4  5  2  0  0  0  0
  4  6  1  0  0  0  0
  6  7  1  0  0  0  0
  7  8  1  0  0  0  0
  1  9  1  0  0  0  0
  1 10  1  0  0  0  0
  1 11  1  0  0  0  0
  2 12  1  0  0  0  0
  2 13  1  0  0  0  0
  3 14  1  0  0  0  0
  3 15  1  0  0  0  0
  7 16  1  0  0  0  0
  7 17  1  0  0  0  0
  8 18  1  0  0  0  0
  8 19  1  0  0  0  0
  8 20  1  0  0  0  0
M  END
