 xtb: 6.7.1 (edcfbbe)
          04112515593D

 20 19  0     0  0            999 V2000
   -3.1599   -0.7751   -0.0606 C   0  0  0  0  0  0  0  0  0  0  0  0
   -2.2663    0.3067   -0.6571 C   0  0  0  0  0  0  0  0  0  0  0  0
   -1.4102    1.0211    0.3902 C   0  0  0  0  0  0  0  0  0  0  0  0
   -0.2892    0.1536    0.9737 C   0  0  0  0  0  0  0  0  0  0  0  0
    0.8512   -0.0694    0.0149 C   0  0  0  0  0  0  0  0  0  0  0  0
    0.7555   -0.2768   -1.1761 O   0  0  0  0  0  0  0  0  0  0  0  0
    2.0160   -0.0192    0.6571 O   0  0  0  0  0  0  0  0  0  0  0  0
    3.2273   -0.2385   -0.0729 C   0  0  0  0  0  0  0  0  0  0  0  0
   -3.7914   -0.3587    0.7211 H   0  0  0  0  0  0  0  0  0  0  0  0
   -3.7999   -1.1971   -0.8314 H   0  0  0  0  0  0  0  0  0  0  0  0
   -2.5715   -1.5846    0.3638 H   0  0  0  0  0  0  0  0  0  0  0  0
   -1.6136   -0.1273   -1.4156 H   0  0  0  0  0  0  0  0  0  0  0  0
   -2.8965    1.0508   -1.1485 H   0  0  0  0  0  0  0  0  0  0  0  0
   -2.0512    1.3471    1.2112 H   0  0  0  0  0  0  0  0  0  0  0  0
   -0.9656    1.9098   -0.0623 H   0  0  0  0  0  0  0  0  0  0  0  0
   -0.6852   -0.8280    1.2405 H   0  0  0  0  0  0  0  0  0  0  0  0
    0.1228    0.6084    1.8744 H   0  0  0  0  0  0  0  0  0  0  0  0
    2.9960   -0.4565   -1.1162 H   0  0  0  0  0  0  0  0  0  0  0  0
    3.7430   -1.0779    0.3893 H   0  0  0  0  0  0  0  0  0  0  0  0
    3.8298    0.6648    0.0026 H   0  0  0  0  0  0  0  0  0  0  0  0
  1  2  1  0  0  0  0
  2  3  1  0  0  0  0
  3  4  1  0  0  0  0
  4  5  1  0  0  0  0
  5  6  2  0  0  0  0
  5  7  1  0  0  0  0
  7  8  1  0  0  0  0
  1  9  1  0  0  0  0
  1 10  1  0  0  0  0
  1 11  1  0  0  0  0
  2 12  1  0  0  0  0
  2 13  1  0  0  0  0
  3 14  1  0  0  0  0
  3 15  1  0  0  0  0
  4 16  1  0  0  0  0
  4 17  1  0  0  0  0
  8 18  1  0  0  0  0
  8 19  1  0  0  0  0
  8 20  1  0  0  0  0
M  END
