 xtb: 6.7.1 (edcfbbe)
          04112512243D

 22 21  0     0  0            999 V2000
    2.3921    0.6160    0.6127 C   0  0  0  0  0  0  0  0  0  0  0  0
    1.1338   -0.1345    0.1735 C   0  0  0  0  0  0  0  0  0  0  0  0
    1.2996   -0.6016   -1.2728 C   0  0  0  0  0  0  0  0  0  0  0  0
    0.0043    0.7818    0.3146 N   0  0  0  0  0  0  0  0  0  0  0  0
   -1.3677    0.2767    0.2738 C   0  0  0  0  0  0  0  0  0  0  0  0
   -1.6147   -1.0119    1.0710 C   0  0  0  0  0  0  0  0  0  0  0  0
   -1.8718    0.1221   -1.1637 C   0  0  0  0  0  0  0  0  0  0  0  0
    2.3153    0.9245    1.6535 H   0  0  0  0  0  0  0  0  0  0  0  0
    3.2665   -0.0205    0.5083 H   0  0  0  0  0  0  0  0  0  0  0  0
    2.5238    1.5013   -0.0035 H   0  0  0  0  0  0  0  0  0  0  0  0
    1.0262   -1.0251    0.8202 H   0  0  0  0  0  0  0  0  0  0  0  0
    1.2257    0.2501   -1.9423 H   0  0  0  0  0  0  0  0  0  0  0  0
    0.5417   -1.3292   -1.5448 H   0  0  0  0  0  0  0  0  0  0  0  0
    2.2738   -1.0675   -1.3982 H   0  0  0  0  0  0  0  0  0  0  0  0
    0.1297    1.2852    1.1855 H   0  0  0  0  0  0  0  0  0  0  0  0
   -1.9657    1.0735    0.7346 H   0  0  0  0  0  0  0  0  0  0  0  0
   -1.1254   -1.8607    0.5990 H   0  0  0  0  0  0  0  0  0  0  0  0
   -1.2410   -0.9130    2.0889 H   0  0  0  0  0  0  0  0  0  0  0  0
   -2.6815   -1.2134    1.1132 H   0  0  0  0  0  0  0  0  0  0  0  0
   -1.5542    0.9748   -1.7559 H   0  0  0  0  0  0  0  0  0  0  0  0
   -2.9580    0.0776   -1.1647 H   0  0  0  0  0  0  0  0  0  0  0  0
   -1.4950   -0.7849   -1.6252 H   0  0  0  0  0  0  0  0  0  0  0  0
  1  2  1  0  0  0  0
  2  3  1  0  0  0  0
  2  4  1  0  0  0  0
  4  5  1  0  0  0  0
  5  6  1  0  0  0  0
  5  7  1  0  0  0  0
  1  8  1  0  0  0  0
  1  9  1  0  0  0  0
  1 10  1  0  0  0  0
  2 11  1  0  0  0  0
  3 12  1  0  0  0  0
  3 13  1  0  0  0  0
  3 14  1  0  0  0  0
  4 15  1  0  0  0  0
  5 16  1  0  0  0  0
  6 17  1  0  0  0  0
  6 18  1  0  0  0  0
  6 19  1  0  0  0  0
  7 20  1  0  0  0  0
  7 21  1  0  0  0  0
  7 22  1  0  0  0  0
M  END
