 xtb: 6.7.1 (edcfbbe)
          04112515533D

 20 19  0     0  0            999 V2000
   -3.4135   -1.0033    0.2838 C   0  0  0  0  0  0  0  0  0  0  0  0
   -2.0612   -0.6436   -0.3181 C   0  0  0  0  0  0  0  0  0  0  0  0
   -1.3108    0.3632    0.5672 C   0  0  0  0  0  0  0  0  0  0  0  0
    0.0056    0.7028   -0.0768 C   0  0  0  0  0  0  0  0  0  0  0  0
    0.1885    1.6287   -0.8416 O   0  0  0  0  0  0  0  0  0  0  0  0
    0.9527   -0.1593    0.2609 O   0  0  0  0  0  0  0  0  0  0  0  0
    2.2596    0.0085   -0.3148 C   0  0  0  0  0  0  0  0  0  0  0  0
    3.2335   -0.8599    0.4581 C   0  0  0  0  0  0  0  0  0  0  0  0
   -3.9294   -1.7150   -0.3547 H   0  0  0  0  0  0  0  0  0  0  0  0
   -3.2857   -1.4490    1.2668 H   0  0  0  0  0  0  0  0  0  0  0  0
   -4.0339   -0.1165    0.3841 H   0  0  0  0  0  0  0  0  0  0  0  0
   -2.2004   -0.2086   -1.3101 H   0  0  0  0  0  0  0  0  0  0  0  0
   -1.4532   -1.5438   -0.4251 H   0  0  0  0  0  0  0  0  0  0  0  0
   -1.1261   -0.0765    1.5463 H   0  0  0  0  0  0  0  0  0  0  0  0
   -1.8979    1.2758    0.6662 H   0  0  0  0  0  0  0  0  0  0  0  0
    2.2086   -0.2823   -1.3691 H   0  0  0  0  0  0  0  0  0  0  0  0
    2.5264    1.0693   -0.2648 H   0  0  0  0  0  0  0  0  0  0  0  0
    4.2248   -0.7569    0.0293 H   0  0  0  0  0  0  0  0  0  0  0  0
    3.2601   -0.5547    1.5000 H   0  0  0  0  0  0  0  0  0  0  0  0
    2.9252   -1.8997    0.4054 H   0  0  0  0  0  0  0  0  0  0  0  0
  1  2  1  0  0  0  0
  2  3  1  0  0  0  0
  3  4  1  0  0  0  0
  4  5  2  0  0  0  0
  4  6  1  0  0  0  0
  6  7  1  0  0  0  0
  7  8  1  0  0  0  0
  1  9  1  0  0  0  0
  1 10  1  0  0  0  0
  1 11  1  0  0  0  0
  2 12  1  0  0  0  0
  2 13  1  0  0  0  0
  3 14  1  0  0  0  0
  3 15  1  0  0  0  0
  7 16  1  0  0  0  0
  7 17  1  0  0  0  0
  8 18  1  0  0  0  0
  8 19  1  0  0  0  0
  8 20  1  0  0  0  0
M  END
