 xtb: 6.7.1 (edcfbbe)
          04112515543D

 17 16  0     0  0            999 V2000
    2.1442   -0.8640    0.6002 C   0  0  0  0  0  0  0  0  0  0  0  0
    1.6939   -0.1291   -0.6572 C   0  0  0  0  0  0  0  0  0  0  0  0
    1.1798    1.2833   -0.3751 C   0  0  0  0  0  0  0  0  0  0  0  0
   -0.0820    1.3640    0.4876 C   0  0  0  0  0  0  0  0  0  0  0  0
   -1.3340    0.8039   -0.1702 C   0  0  0  0  0  0  0  0  0  0  0  0
   -1.4881   -0.9804    0.0326 Cl  0  0  0  0  0  0  0  0  0  0  0  0
    2.8640   -0.2665    1.1554 H   0  0  0  0  0  0  0  0  0  0  0  0
    2.6125   -1.8093    0.3356 H   0  0  0  0  0  0  0  0  0  0  0  0
    1.2988   -1.0811    1.2480 H   0  0  0  0  0  0  0  0  0  0  0  0
    2.5418   -0.0493   -1.3418 H   0  0  0  0  0  0  0  0  0  0  0  0
    0.9223   -0.7131   -1.1601 H   0  0  0  0  0  0  0  0  0  0  0  0
    0.9816    1.7791   -1.3280 H   0  0  0  0  0  0  0  0  0  0  0  0
    1.9694    1.8434    0.1306 H   0  0  0  0  0  0  0  0  0  0  0  0
   -0.2787    2.4187    0.6924 H   0  0  0  0  0  0  0  0  0  0  0  0
    0.0821    0.8695    1.4447 H   0  0  0  0  0  0  0  0  0  0  0  0
   -2.2330    1.2151    0.2852 H   0  0  0  0  0  0  0  0  0  0  0  0
   -1.3407    0.9880   -1.2432 H   0  0  0  0  0  0  0  0  0  0  0  0
  1  2  1  0  0  0  0
  2  3  1  0  0  0  0
  3  4  1  0  0  0  0
  4  5  1  0  0  0  0
  5  6  1  0  0  0  0
  1  7  1  0  0  0  0
  1  8  1  0  0  0  0
  1  9  1  0  0  0  0
  2 10  1  0  0  0  0
  2 11  1  0  0  0  0
  3 12  1  0  0  0  0
  3 13  1  0  0  0  0
  4 14  1  0  0  0  0
  4 15  1  0  0  0  0
  5 16  1  0  0  0  0
  5 17  1  0  0  0  0
M  END
