 xtb: 6.7.1 (edcfbbe)
          04112515533D

 20 19  0     0  0            999 V2000
   -2.1422   -1.3964   -0.4571 C   0  0  0  0  0  0  0  0  0  0  0  0
   -2.0460   -0.4415    0.7265 C   0  0  0  0  0  0  0  0  0  0  0  0
   -1.4733    0.9192    0.3122 C   0  0  0  0  0  0  0  0  0  0  0  0
   -0.0525    0.7939   -0.1755 C   0  0  0  0  0  0  0  0  0  0  0  0
    0.3315    1.1246   -1.2787 O   0  0  0  0  0  0  0  0  0  0  0  0
    0.7440    0.2905    0.7588 O   0  0  0  0  0  0  0  0  0  0  0  0
    2.1282    0.0808    0.4381 C   0  0  0  0  0  0  0  0  0  0  0  0
    2.3380   -1.2652   -0.2389 C   0  0  0  0  0  0  0  0  0  0  0  0
   -2.5494   -2.3532   -0.1415 H   0  0  0  0  0  0  0  0  0  0  0  0
   -2.7867   -0.9833   -1.2295 H   0  0  0  0  0  0  0  0  0  0  0  0
   -1.1600   -1.5669   -0.8939 H   0  0  0  0  0  0  0  0  0  0  0  0
   -1.4082   -0.8724    1.4993 H   0  0  0  0  0  0  0  0  0  0  0  0
   -3.0389   -0.2853    1.1495 H   0  0  0  0  0  0  0  0  0  0  0  0
   -1.4708    1.5889    1.1732 H   0  0  0  0  0  0  0  0  0  0  0  0
   -2.0673    1.3607   -0.4881 H   0  0  0  0  0  0  0  0  0  0  0  0
    2.4636    0.8946   -0.2121 H   0  0  0  0  0  0  0  0  0  0  0  0
    2.6419    0.1260    1.3988 H   0  0  0  0  0  0  0  0  0  0  0  0
    1.9473   -2.0643    0.3855 H   0  0  0  0  0  0  0  0  0  0  0  0
    1.8273   -1.2826   -1.1995 H   0  0  0  0  0  0  0  0  0  0  0  0
    3.3987   -1.4243   -0.4029 H   0  0  0  0  0  0  0  0  0  0  0  0
  1  2  1  0  0  0  0
  2  3  1  0  0  0  0
  3  4  1  0  0  0  0
  4  5  2  0  0  0  0
  4  6  1  0  0  0  0
  6  7  1  0  0  0  0
  7  8  1  0  0  0  0
  1  9  1  0  0  0  0
  1 10  1  0  0  0  0
  1 11  1  0  0  0  0
  2 12  1  0  0  0  0
  2 13  1  0  0  0  0
  3 14  1  0  0  0  0
  3 15  1  0  0  0  0
  7 16  1  0  0  0  0
  7 17  1  0  0  0  0
  8 18  1  0  0  0  0
  8 19  1  0  0  0  0
  8 20  1  0  0  0  0
M  END
