 xtb: 6.7.1 (edcfbbe)
          04112515533D

 20 19  0     0  0            999 V2000
   -2.0805   -1.5443   -0.0580 C   0  0  0  0  0  0  0  0  0  0  0  0
   -2.4157   -0.0595   -0.1283 C   0  0  0  0  0  0  0  0  0  0  0  0
   -1.3936    0.7878    0.6380 C   0  0  0  0  0  0  0  0  0  0  0  0
   -0.0426    0.7170   -0.0265 C   0  0  0  0  0  0  0  0  0  0  0  0
    0.1782    1.0243   -1.1795 O   0  0  0  0  0  0  0  0  0  0  0  0
    0.8908    0.2808    0.8102 O   0  0  0  0  0  0  0  0  0  0  0  0
    2.2362    0.1372    0.3255 C   0  0  0  0  0  0  0  0  0  0  0  0
    2.4436   -1.2262   -0.3165 C   0  0  0  0  0  0  0  0  0  0  0  0
   -2.0384   -1.8780    0.9759 H   0  0  0  0  0  0  0  0  0  0  0  0
   -2.8339   -2.1277   -0.5806 H   0  0  0  0  0  0  0  0  0  0  0  0
   -1.1153   -1.7389   -0.5216 H   0  0  0  0  0  0  0  0  0  0  0  0
   -3.4044    0.1140    0.2973 H   0  0  0  0  0  0  0  0  0  0  0  0
   -2.4276    0.2664   -1.1702 H   0  0  0  0  0  0  0  0  0  0  0  0
   -1.2951    0.4448    1.6670 H   0  0  0  0  0  0  0  0  0  0  0  0
   -1.7104    1.8318    0.6293 H   0  0  0  0  0  0  0  0  0  0  0  0
    2.4347    0.9365   -0.3951 H   0  0  0  0  0  0  0  0  0  0  0  0
    2.8622    0.2589    1.2098 H   0  0  0  0  0  0  0  0  0  0  0  0
    1.8205   -1.3191   -1.2035 H   0  0  0  0  0  0  0  0  0  0  0  0
    3.4839   -1.3339   -0.6056 H   0  0  0  0  0  0  0  0  0  0  0  0
    2.1820   -2.0138    0.3852 H   0  0  0  0  0  0  0  0  0  0  0  0
  1  2  1  0  0  0  0
  2  3  1  0  0  0  0
  3  4  1  0  0  0  0
  4  5  2  0  0  0  0
  4  6  1  0  0  0  0
  6  7  1  0  0  0  0
  7  8  1  0  0  0  0
  1  9  1  0  0  0  0
  1 10  1  0  0  0  0
  1 11  1  0  0  0  0
  2 12  1  0  0  0  0
  2 13  1  0  0  0  0
  3 14  1  0  0  0  0
  3 15  1  0  0  0  0
  7 16  1  0  0  0  0
  7 17  1  0  0  0  0
  8 18  1  0  0  0  0
  8 19  1  0  0  0  0
  8 20  1  0  0  0  0
M  END
