 xtb: 6.7.1 (edcfbbe)
          04112512263D

 13 12  0     0  0            999 V2000
    2.3208    0.3019   -0.0032 C   0  0  0  0  0  0  0  0  0  0  0  0
    1.1627   -0.1960    0.3868 C   0  0  0  0  0  0  0  0  0  0  0  0
   -0.0001   -0.4597   -0.5237 C   0  0  0  0  0  0  0  0  0  0  0  0
   -1.1616    0.4092   -0.1413 C   0  0  0  0  0  0  0  0  0  0  0  0
   -2.3217   -0.0419    0.2970 C   0  0  0  0  0  0  0  0  0  0  0  0
    3.1263    0.4825    0.6881 H   0  0  0  0  0  0  0  0  0  0  0  0
    2.5147    0.5442   -1.0355 H   0  0  0  0  0  0  0  0  0  0  0  0
    0.9879   -0.4279    1.4294 H   0  0  0  0  0  0  0  0  0  0  0  0
   -0.2911   -1.5099   -0.4479 H   0  0  0  0  0  0  0  0  0  0  0  0
    0.2900   -0.2463   -1.5551 H   0  0  0  0  0  0  0  0  0  0  0  0
   -0.9842    1.4733   -0.2294 H   0  0  0  0  0  0  0  0  0  0  0  0
   -3.1261    0.6204    0.5679 H   0  0  0  0  0  0  0  0  0  0  0  0
   -2.5182   -1.0971    0.3968 H   0  0  0  0  0  0  0  0  0  0  0  0
  1  2  2  0  0  0  0
  2  3  1  0  0  0  0
  3  4  1  0  0  0  0
  4  5  2  0  0  0  0
  1  6  1  0  0  0  0
  1  7  1  0  0  0  0
  2  8  1  0  0  0  0
  3  9  1  0  0  0  0
  3 10  1  0  0  0  0
  4 11  1  0  0  0  0
  5 12  1  0  0  0  0
  5 13  1  0  0  0  0
M  END
