 xtb: 6.7.1 (edcfbbe)
          04112515593D

 20 19  0     0  0            999 V2000
   -3.3189   -0.8571    0.2318 C   0  0  0  0  0  0  0  0  0  0  0  0
   -1.9160   -0.5791   -0.2942 C   0  0  0  0  0  0  0  0  0  0  0  0
   -1.5048    0.8730   -0.0593 C   0  0  0  0  0  0  0  0  0  0  0  0
   -0.1117    1.1687   -0.6214 C   0  0  0  0  0  0  0  0  0  0  0  0
    0.9479    0.4081    0.1319 C   0  0  0  0  0  0  0  0  0  0  0  0
    1.0619    0.3740    1.3390 O   0  0  0  0  0  0  0  0  0  0  0  0
    1.7713   -0.2332   -0.6917 O   0  0  0  0  0  0  0  0  0  0  0  0
    2.8389   -0.9855   -0.1090 C   0  0  0  0  0  0  0  0  0  0  0  0
   -3.3685   -0.6624    1.3006 H   0  0  0  0  0  0  0  0  0  0  0  0
   -4.0444   -0.2196   -0.2677 H   0  0  0  0  0  0  0  0  0  0  0  0
   -3.5930   -1.8944    0.0579 H   0  0  0  0  0  0  0  0  0  0  0  0
   -1.2023   -1.2387    0.2065 H   0  0  0  0  0  0  0  0  0  0  0  0
   -1.8776   -0.7981   -1.3635 H   0  0  0  0  0  0  0  0  0  0  0  0
   -1.5008    1.0800    1.0127 H   0  0  0  0  0  0  0  0  0  0  0  0
   -2.2276    1.5369   -0.5348 H   0  0  0  0  0  0  0  0  0  0  0  0
    0.1074    2.2317   -0.5053 H   0  0  0  0  0  0  0  0  0  0  0  0
   -0.0459    0.9035   -1.6760 H   0  0  0  0  0  0  0  0  0  0  0  0
    2.4343   -1.8036    0.4881 H   0  0  0  0  0  0  0  0  0  0  0  0
    3.4416   -0.3424    0.5333 H   0  0  0  0  0  0  0  0  0  0  0  0
    3.4212   -1.3631   -0.9433 H   0  0  0  0  0  0  0  0  0  0  0  0
  1  2  1  0  0  0  0
  2  3  1  0  0  0  0
  3  4  1  0  0  0  0
  4  5  1  0  0  0  0
  5  6  2  0  0  0  0
  5  7  1  0  0  0  0
  7  8  1  0  0  0  0
  1  9  1  0  0  0  0
  1 10  1  0  0  0  0
  1 11  1  0  0  0  0
  2 12  1  0  0  0  0
  2 13  1  0  0  0  0
  3 14  1  0  0  0  0
  3 15  1  0  0  0  0
  4 16  1  0  0  0  0
  4 17  1  0  0  0  0
  8 18  1  0  0  0  0
  8 19  1  0  0  0  0
  8 20  1  0  0  0  0
M  END
