 xtb: 6.7.1 (edcfbbe)
          04112515533D

 20 19  0     0  0            999 V2000
   -3.6218   -0.6246    0.2441 C   0  0  0  0  0  0  0  0  0  0  0  0
   -2.2983    0.1172    0.3751 C   0  0  0  0  0  0  0  0  0  0  0  0
   -1.1632   -0.6356   -0.3182 C   0  0  0  0  0  0  0  0  0  0  0  0
    0.1189    0.1549   -0.3212 C   0  0  0  0  0  0  0  0  0  0  0  0
    0.1927    1.3656   -0.3231 O   0  0  0  0  0  0  0  0  0  0  0  0
    1.1796   -0.6455   -0.3479 O   0  0  0  0  0  0  0  0  0  0  0  0
    2.4872   -0.0478   -0.3741 C   0  0  0  0  0  0  0  0  0  0  0  0
    2.9725    0.2740    1.0311 C   0  0  0  0  0  0  0  0  0  0  0  0
   -4.4100   -0.0800    0.7564 H   0  0  0  0  0  0  0  0  0  0  0  0
   -3.8993   -0.7288   -0.8019 H   0  0  0  0  0  0  0  0  0  0  0  0
   -3.5471   -1.6167    0.6821 H   0  0  0  0  0  0  0  0  0  0  0  0
   -2.0502    0.2471    1.4303 H   0  0  0  0  0  0  0  0  0  0  0  0
   -2.3789    1.1121   -0.0667 H   0  0  0  0  0  0  0  0  0  0  0  0
   -1.4282   -0.8137   -1.3638 H   0  0  0  0  0  0  0  0  0  0  0  0
   -0.9757   -1.6021    0.1493 H   0  0  0  0  0  0  0  0  0  0  0  0
    3.1205   -0.7957   -0.8520 H   0  0  0  0  0  0  0  0  0  0  0  0
    2.4435    0.8602   -0.9829 H   0  0  0  0  0  0  0  0  0  0  0  0
    2.3291    1.0253    1.4837 H   0  0  0  0  0  0  0  0  0  0  0  0
    2.9588   -0.6217    1.6460 H   0  0  0  0  0  0  0  0  0  0  0  0
    3.9851    0.6608    0.9820 H   0  0  0  0  0  0  0  0  0  0  0  0
  1  2  1  0  0  0  0
  2  3  1  0  0  0  0
  3  4  1  0  0  0  0
  4  5  2  0  0  0  0
  4  6  1  0  0  0  0
  6  7  1  0  0  0  0
  7  8  1  0  0  0  0
  1  9  1  0  0  0  0
  1 10  1  0  0  0  0
  1 11  1  0  0  0  0
  2 12  1  0  0  0  0
  2 13  1  0  0  0  0
  3 14  1  0  0  0  0
  3 15  1  0  0  0  0
  7 16  1  0  0  0  0
  7 17  1  0  0  0  0
  8 18  1  0  0  0  0
  8 19  1  0  0  0  0
  8 20  1  0  0  0  0
M  END
