 xtb: 6.7.1 (edcfbbe)
          04112515593D

 20 19  0     0  0            999 V2000
   -2.7343   -0.2812   -0.8095 C   0  0  0  0  0  0  0  0  0  0  0  0
   -1.8846   -0.7962    0.3471 C   0  0  0  0  0  0  0  0  0  0  0  0
   -1.2555    0.3230    1.1785 C   0  0  0  0  0  0  0  0  0  0  0  0
   -0.3145    1.2276    0.3710 C   0  0  0  0  0  0  0  0  0  0  0  0
    0.7808    0.4282   -0.2846 C   0  0  0  0  0  0  0  0  0  0  0  0
    0.9298    0.3098   -1.4837 O   0  0  0  0  0  0  0  0  0  0  0  0
    1.5754   -0.1357    0.6166 O   0  0  0  0  0  0  0  0  0  0  0  0
    2.6665   -0.9470    0.1741 C   0  0  0  0  0  0  0  0  0  0  0  0
   -2.1108    0.1876   -1.5669 H   0  0  0  0  0  0  0  0  0  0  0  0
   -3.2678   -1.1044   -1.2783 H   0  0  0  0  0  0  0  0  0  0  0  0
   -3.4627    0.4440   -0.4547 H   0  0  0  0  0  0  0  0  0  0  0  0
   -2.5082   -1.4023    1.0076 H   0  0  0  0  0  0  0  0  0  0  0  0
   -1.0976   -1.4429   -0.0493 H   0  0  0  0  0  0  0  0  0  0  0  0
   -0.6914   -0.1208    2.0004 H   0  0  0  0  0  0  0  0  0  0  0  0
   -2.0458    0.9445    1.6016 H   0  0  0  0  0  0  0  0  0  0  0  0
    0.1494    1.9472    1.0461 H   0  0  0  0  0  0  0  0  0  0  0  0
   -0.8592    1.7611   -0.4061 H   0  0  0  0  0  0  0  0  0  0  0  0
    2.4610   -1.9788    0.4558 H   0  0  0  0  0  0  0  0  0  0  0  0
    3.5607   -0.5884    0.6790 H   0  0  0  0  0  0  0  0  0  0  0  0
    2.7744   -0.8654   -0.9082 H   0  0  0  0  0  0  0  0  0  0  0  0
  1  2  1  0  0  0  0
  2  3  1  0  0  0  0
  3  4  1  0  0  0  0
  4  5  1  0  0  0  0
  5  6  2  0  0  0  0
  5  7  1  0  0  0  0
  7  8  1  0  0  0  0
  1  9  1  0  0  0  0
  1 10  1  0  0  0  0
  1 11  1  0  0  0  0
  2 12  1  0  0  0  0
  2 13  1  0  0  0  0
  3 14  1  0  0  0  0
  3 15  1  0  0  0  0
  4 16  1  0  0  0  0
  4 17  1  0  0  0  0
  8 18  1  0  0  0  0
  8 19  1  0  0  0  0
  8 20  1  0  0  0  0
M  END
