 xtb: 6.7.1 (edcfbbe)
          04112515593D

 20 19  0     0  0            999 V2000
   -3.3531   -0.2514    0.9395 C   0  0  0  0  0  0  0  0  0  0  0  0
   -2.8141   -0.1686   -0.4845 C   0  0  0  0  0  0  0  0  0  0  0  0
   -1.4189    0.4500   -0.5624 C   0  0  0  0  0  0  0  0  0  0  0  0
   -0.3497   -0.4160    0.0983 C   0  0  0  0  0  0  0  0  0  0  0  0
    1.0364    0.1247   -0.1281 C   0  0  0  0  0  0  0  0  0  0  0  0
    1.3175    1.1024   -0.7870 O   0  0  0  0  0  0  0  0  0  0  0  0
    1.9516   -0.6191    0.4914 O   0  0  0  0  0  0  0  0  0  0  0  0
    3.3208   -0.2279    0.3593 C   0  0  0  0  0  0  0  0  0  0  0  0
   -3.3341    0.7292    1.4094 H   0  0  0  0  0  0  0  0  0  0  0  0
   -4.3803   -0.6070    0.9310 H   0  0  0  0  0  0  0  0  0  0  0  0
   -2.7639   -0.9363    1.5429 H   0  0  0  0  0  0  0  0  0  0  0  0
   -2.7914   -1.1676   -0.9242 H   0  0  0  0  0  0  0  0  0  0  0  0
   -3.4923    0.4412   -1.0842 H   0  0  0  0  0  0  0  0  0  0  0  0
   -1.4247    1.4341   -0.0900 H   0  0  0  0  0  0  0  0  0  0  0  0
   -1.1453    0.5979   -1.6092 H   0  0  0  0  0  0  0  0  0  0  0  0
   -0.3760   -1.4319   -0.3016 H   0  0  0  0  0  0  0  0  0  0  0  0
   -0.5028   -0.4857    1.1757 H   0  0  0  0  0  0  0  0  0  0  0  0
    3.4850    0.7254    0.8627 H   0  0  0  0  0  0  0  0  0  0  0  0
    3.5791   -0.1218   -0.6949 H   0  0  0  0  0  0  0  0  0  0  0  0
    3.8977   -1.0192    0.8270 H   0  0  0  0  0  0  0  0  0  0  0  0
  1  2  1  0  0  0  0
  2  3  1  0  0  0  0
  3  4  1  0  0  0  0
  4  5  1  0  0  0  0
  5  6  2  0  0  0  0
  5  7  1  0  0  0  0
  7  8  1  0  0  0  0
  1  9  1  0  0  0  0
  1 10  1  0  0  0  0
  1 11  1  0  0  0  0
  2 12  1  0  0  0  0
  2 13  1  0  0  0  0
  3 14  1  0  0  0  0
  3 15  1  0  0  0  0
  4 16  1  0  0  0  0
  4 17  1  0  0  0  0
  8 18  1  0  0  0  0
  8 19  1  0  0  0  0
  8 20  1  0  0  0  0
M  END
