 xtb: 6.7.1 (edcfbbe)
          04112515533D

 20 19  0     0  0            999 V2000
   -2.3521   -1.3924   -0.2796 C   0  0  0  0  0  0  0  0  0  0  0  0
   -2.5324    0.0820    0.0610 C   0  0  0  0  0  0  0  0  0  0  0  0
   -1.3201    0.6392    0.8150 C   0  0  0  0  0  0  0  0  0  0  0  0
   -0.1012    0.6518   -0.0709 C   0  0  0  0  0  0  0  0  0  0  0  0
   -0.0339    1.1935   -1.1558 O   0  0  0  0  0  0  0  0  0  0  0  0
    0.9107   -0.0092    0.4725 O   0  0  0  0  0  0  0  0  0  0  0  0
    2.1435   -0.0779   -0.2640 C   0  0  0  0  0  0  0  0  0  0  0  0
    3.0936   -0.9895    0.4879 C   0  0  0  0  0  0  0  0  0  0  0  0
   -1.4935   -1.5287   -0.9345 H   0  0  0  0  0  0  0  0  0  0  0  0
   -2.1921   -1.9766    0.6234 H   0  0  0  0  0  0  0  0  0  0  0  0
   -3.2332   -1.7741   -0.7883 H   0  0  0  0  0  0  0  0  0  0  0  0
   -3.4203    0.2095    0.6806 H   0  0  0  0  0  0  0  0  0  0  0  0
   -2.6668    0.6577   -0.8567 H   0  0  0  0  0  0  0  0  0  0  0  0
   -1.1011    0.0427    1.6997 H   0  0  0  0  0  0  0  0  0  0  0  0
   -1.5207    1.6700    1.1113 H   0  0  0  0  0  0  0  0  0  0  0  0
    1.9259   -0.4535   -1.2694 H   0  0  0  0  0  0  0  0  0  0  0  0
    2.5442    0.9366   -0.3598 H   0  0  0  0  0  0  0  0  0  0  0  0
    4.0335   -1.0518   -0.0505 H   0  0  0  0  0  0  0  0  0  0  0  0
    3.2750   -0.5960    1.4835 H   0  0  0  0  0  0  0  0  0  0  0  0
    2.6641   -1.9830    0.5767 H   0  0  0  0  0  0  0  0  0  0  0  0
  1  2  1  0  0  0  0
  2  3  1  0  0  0  0
  3  4  1  0  0  0  0
  4  5  2  0  0  0  0
  4  6  1  0  0  0  0
  6  7  1  0  0  0  0
  7  8  1  0  0  0  0
  1  9  1  0  0  0  0
  1 10  1  0  0  0  0
  1 11  1  0  0  0  0
  2 12  1  0  0  0  0
  2 13  1  0  0  0  0
  3 14  1  0  0  0  0
  3 15  1  0  0  0  0
  7 16  1  0  0  0  0
  7 17  1  0  0  0  0
  8 18  1  0  0  0  0
  8 19  1  0  0  0  0
  8 20  1  0  0  0  0
M  END
