 xtb: 6.7.1 (edcfbbe)
          04112512293D

 16 15  0     0  0            999 V2000
    1.5919   -0.8460   -0.4438 C   0  0  0  0  0  0  0  0  0  0  0  0
    1.3025    0.5697    0.0385 C   0  0  0  0  0  0  0  0  0  0  0  0
    0.0163    0.6709    0.8596 C   0  0  0  0  0  0  0  0  0  0  0  0
   -1.2664    0.5516    0.0338 C   0  0  0  0  0  0  0  0  0  0  0  0
   -1.4915   -0.8073   -0.4431 N   0  0  0  0  0  0  0  0  0  0  0  0
    1.7394   -1.5116    0.4040 H   0  0  0  0  0  0  0  0  0  0  0  0
    0.7571   -1.2151   -1.0311 H   0  0  0  0  0  0  0  0  0  0  0  0
    2.4926   -0.8615   -1.0531 H   0  0  0  0  0  0  0  0  0  0  0  0
    2.1360    0.9160    0.6551 H   0  0  0  0  0  0  0  0  0  0  0  0
    1.2277    1.2384   -0.8214 H   0  0  0  0  0  0  0  0  0  0  0  0
    0.0179   -0.1023    1.6313 H   0  0  0  0  0  0  0  0  0  0  0  0
   -0.0038    1.6417    1.3601 H   0  0  0  0  0  0  0  0  0  0  0  0
   -1.1926    1.1992   -0.8450 H   0  0  0  0  0  0  0  0  0  0  0  0
   -2.1060    0.9219    0.6499 H   0  0  0  0  0  0  0  0  0  0  0  0
   -2.3635   -0.8484   -0.9582 H   0  0  0  0  0  0  0  0  0  0  0  0
   -1.5716   -1.4361    0.3494 H   0  0  0  0  0  0  0  0  0  0  0  0
  1  2  1  0  0  0  0
  2  3  1  0  0  0  0
  3  4  1  0  0  0  0
  4  5  1  0  0  0  0
  1  6  1  0  0  0  0
  1  7  1  0  0  0  0
  1  8  1  0  0  0  0
  2  9  1  0  0  0  0
  2 10  1  0  0  0  0
  3 11  1  0  0  0  0
  3 12  1  0  0  0  0
  4 13  1  0  0  0  0
  4 14  1  0  0  0  0
  5 15  1  0  0  0  0
  5 16  1  0  0  0  0
M  END
