 xtb: 6.7.1 (edcfbbe)
          04112515543D

 31 32  0     0  0            999 V2000
   -3.5996    0.0533    1.8863 C   0  0  0  0  0  0  0  0  0  0  0  0
   -3.0549    0.5289    0.5395 C   0  0  0  0  0  0  0  0  0  0  0  0
   -3.1776    1.6097    0.4361 H   0  0  0  0  0  0  0  0  0  0  0  0
   -1.5868    0.1875    0.3815 C   0  0  0  0  0  0  0  0  0  0  0  0
   -1.1800   -1.1602    0.3555 C   0  0  0  0  0  0  0  0  0  0  0  0
    0.1399   -1.4902    0.2317 C   0  0  0  0  0  0  0  0  0  0  0  0
    1.1302   -0.4911    0.1278 C   0  0  0  0  0  0  0  0  0  0  0  0
    2.4983   -0.8114    0.0039 C   0  0  0  0  0  0  0  0  0  0  0  0
    3.4372    0.1844   -0.0982 C   0  0  0  0  0  0  0  0  0  0  0  0
    3.0311    1.5398   -0.0800 C   0  0  0  0  0  0  0  0  0  0  0  0
    1.7152    1.8688    0.0384 C   0  0  0  0  0  0  0  0  0  0  0  0
    0.7246    0.8672    0.1461 C   0  0  0  0  0  0  0  0  0  0  0  0
   -0.6436    1.1760    0.2697 C   0  0  0  0  0  0  0  0  0  0  0  0
    4.7818   -0.0059   -0.2208 O   0  0  0  0  0  0  0  0  0  0  0  0
    5.2767   -1.3306   -0.2449 C   0  0  0  0  0  0  0  0  0  0  0  0
   -3.7792   -0.1301   -0.6137 C   0  0  0  0  0  0  0  0  0  0  0  0
   -4.2261   -1.2563   -0.6074 O   0  0  0  0  0  0  0  0  0  0  0  0
   -3.8411    0.6579   -1.6756 O   0  0  0  0  0  0  0  0  0  0  0  0
   -3.5957   -1.0325    1.9304 H   0  0  0  0  0  0  0  0  0  0  0  0
   -2.9828    0.4436    2.6907 H   0  0  0  0  0  0  0  0  0  0  0  0
   -4.6217    0.3977    2.0213 H   0  0  0  0  0  0  0  0  0  0  0  0
   -1.9300   -1.9349    0.4210 H   0  0  0  0  0  0  0  0  0  0  0  0
    0.4410   -2.5273    0.2104 H   0  0  0  0  0  0  0  0  0  0  0  0
    2.7750   -1.8538   -0.0070 H   0  0  0  0  0  0  0  0  0  0  0  0
    3.7998    2.2917   -0.1629 H   0  0  0  0  0  0  0  0  0  0  0  0
    1.4122    2.9047    0.0518 H   0  0  0  0  0  0  0  0  0  0  0  0
   -0.9383    2.2153    0.2798 H   0  0  0  0  0  0  0  0  0  0  0  0
    5.0386   -1.8566    0.6833 H   0  0  0  0  0  0  0  0  0  0  0  0
    6.3552   -1.2329   -0.3450 H   0  0  0  0  0  0  0  0  0  0  0  0
    4.8759   -1.8850   -1.0976 H   0  0  0  0  0  0  0  0  0  0  0  0
   -4.2664    0.2289   -2.4438 H   0  0  0  0  0  0  0  0  0  0  0  0
  1  2  1  0  0  0  0
  2  3  1  0  0  0  0
  2  4  1  0  0  0  0
  4  5  4  0  0  0  0
  5  6  2  0  0  0  0
  6  7  4  0  0  0  0
  7  8  4  0  0  0  0
  8  9  4  0  0  0  0
  9 10  4  0  0  0  0
 10 11  2  0  0  0  0
  7 12  4  0  0  0  0
 11 12  4  0  0  0  0
  4 13  2  0  0  0  0
 12 13  4  0  0  0  0
  9 14  1  0  0  0  0
 14 15  1  0  0  0  0
  2 16  1  0  0  0  0
 16 17  2  0  0  0  0
 16 18  1  0  0  0  0
  1 19  1  0  0  0  0
  1 20  1  0  0  0  0
  1 21  1  0  0  0  0
  5 22  1  0  0  0  0
  6 23  1  0  0  0  0
  8 24  1  0  0  0  0
 10 25  1  0  0  0  0
 11 26  1  0  0  0  0
 13 27  1  0  0  0  0
 15 28  1  0  0  0  0
 15 29  1  0  0  0  0
 15 30  1  0  0  0  0
 18 31  1  0  0  0  0
M  END
