 xtb: 6.7.1 (edcfbbe)
          04112512293D

 21 20  0     0  0            999 V2000
    1.4595   -0.4765   -1.4306 C   0  0  0  0  0  0  0  0  0  0  0  0
    1.5237   -0.1768    0.0561 C   0  0  0  0  0  0  0  0  0  0  0  0
    1.9518    1.2524    0.3519 C   0  0  0  0  0  0  0  0  0  0  0  0
   -0.0061   -0.6532    0.9808 S   0  0  0  0  0  0  0  0  0  0  0  0
   -1.5251    0.0247    0.1713 C   0  0  0  0  0  0  0  0  0  0  0  0
   -1.4508    1.5120   -0.1230 C   0  0  0  0  0  0  0  0  0  0  0  0
   -1.9465   -0.7957   -1.0381 C   0  0  0  0  0  0  0  0  0  0  0  0
    0.8217    0.2375   -1.9456 H   0  0  0  0  0  0  0  0  0  0  0  0
    2.4598   -0.4033   -1.8533 H   0  0  0  0  0  0  0  0  0  0  0  0
    1.0838   -1.4820   -1.6032 H   0  0  0  0  0  0  0  0  0  0  0  0
    2.2342   -0.8629    0.5295 H   0  0  0  0  0  0  0  0  0  0  0  0
    2.9763    1.3986    0.0153 H   0  0  0  0  0  0  0  0  0  0  0  0
    1.9069    1.4452    1.4211 H   0  0  0  0  0  0  0  0  0  0  0  0
    1.3171    1.9701   -0.1593 H   0  0  0  0  0  0  0  0  0  0  0  0
   -2.2437   -0.1449    0.9803 H   0  0  0  0  0  0  0  0  0  0  0  0
   -1.0810    2.0563    0.7426 H   0  0  0  0  0  0  0  0  0  0  0  0
   -0.8036    1.7098   -0.9738 H   0  0  0  0  0  0  0  0  0  0  0  0
   -2.4470    1.8789   -0.3630 H   0  0  0  0  0  0  0  0  0  0  0  0
   -1.9061   -1.8572   -0.8057 H   0  0  0  0  0  0  0  0  0  0  0  0
   -1.3052   -0.6005   -1.8924 H   0  0  0  0  0  0  0  0  0  0  0  0
   -2.9684   -0.5383   -1.3098 H   0  0  0  0  0  0  0  0  0  0  0  0
  1  2  1  0  0  0  0
  2  3  1  0  0  0  0
  2  4  1  0  0  0  0
  4  5  1  0  0  0  0
  5  6  1  0  0  0  0
  5  7  1  0  0  0  0
  1  8  1  0  0  0  0
  1  9  1  0  0  0  0
  1 10  1  0  0  0  0
  2 11  1  0  0  0  0
  3 12  1  0  0  0  0
  3 13  1  0  0  0  0
  3 14  1  0  0  0  0
  5 15  1  0  0  0  0
  6 16  1  0  0  0  0
  6 17  1  0  0  0  0
  6 18  1  0  0  0  0
  7 19  1  0  0  0  0
  7 20  1  0  0  0  0
  7 21  1  0  0  0  0
M  END
