 xtb: 6.7.1 (edcfbbe)
          04112515533D

 20 19  0     0  0            999 V2000
   -2.4220   -1.3706   -0.3511 C   0  0  0  0  0  0  0  0  0  0  0  0
   -2.5396    0.0956    0.0477 C   0  0  0  0  0  0  0  0  0  0  0  0
   -1.3096    0.5681    0.8255 C   0  0  0  0  0  0  0  0  0  0  0  0
   -0.0833    0.6150   -0.0506 C   0  0  0  0  0  0  0  0  0  0  0  0
   -0.0587    1.0255   -1.1927 O   0  0  0  0  0  0  0  0  0  0  0  0
    0.9843    0.1603    0.5913 O   0  0  0  0  0  0  0  0  0  0  0  0
    2.2557    0.1421   -0.0812 C   0  0  0  0  0  0  0  0  0  0  0  0
    2.9862   -1.1384    0.2822 C   0  0  0  0  0  0  0  0  0  0  0  0
   -2.2998   -1.9982    0.5285 H   0  0  0  0  0  0  0  0  0  0  0  0
   -3.3130   -1.6908   -0.8844 H   0  0  0  0  0  0  0  0  0  0  0  0
   -1.5627   -1.5167   -1.0029 H   0  0  0  0  0  0  0  0  0  0  0  0
   -3.4254    0.2372    0.6673 H   0  0  0  0  0  0  0  0  0  0  0  0
   -2.6426    0.7106   -0.8481 H   0  0  0  0  0  0  0  0  0  0  0  0
   -1.1030   -0.0799    1.6766 H   0  0  0  0  0  0  0  0  0  0  0  0
   -1.4758    1.5841    1.1902 H   0  0  0  0  0  0  0  0  0  0  0  0
    2.0795    0.2204   -1.1587 H   0  0  0  0  0  0  0  0  0  0  0  0
    2.8124    1.0220    0.2542 H   0  0  0  0  0  0  0  0  0  0  0  0
    3.1068   -1.2019    1.3596 H   0  0  0  0  0  0  0  0  0  0  0  0
    2.4249   -2.0036   -0.0596 H   0  0  0  0  0  0  0  0  0  0  0  0
    3.9635   -1.1391   -0.1893 H   0  0  0  0  0  0  0  0  0  0  0  0
  1  2  1  0  0  0  0
  2  3  1  0  0  0  0
  3  4  1  0  0  0  0
  4  5  2  0  0  0  0
  4  6  1  0  0  0  0
  6  7  1  0  0  0  0
  7  8  1  0  0  0  0
  1  9  1  0  0  0  0
  1 10  1  0  0  0  0
  1 11  1  0  0  0  0
  2 12  1  0  0  0  0
  2 13  1  0  0  0  0
  3 14  1  0  0  0  0
  3 15  1  0  0  0  0
  7 16  1  0  0  0  0
  7 17  1  0  0  0  0
  8 18  1  0  0  0  0
  8 19  1  0  0  0  0
  8 20  1  0  0  0  0
M  END
