 xtb: 6.7.1 (edcfbbe)
          04112515563D

 33 35  0     0  0            999 V2000
   -4.5284   -1.1125   -0.4141 C   0  0  0  0  0  0  0  0  0  0  0  0
   -3.7912   -2.2754   -0.2380 C   0  0  0  0  0  0  0  0  0  0  0  0
   -2.4280   -2.2046   -0.0185 C   0  0  0  0  0  0  0  0  0  0  0  0
   -1.7765   -0.9738    0.0259 C   0  0  0  0  0  0  0  0  0  0  0  0
   -2.5211    0.1971   -0.1537 C   0  0  0  0  0  0  0  0  0  0  0  0
   -3.8955    0.1152   -0.3711 C   0  0  0  0  0  0  0  0  0  0  0  0
   -1.8708    1.5125   -0.1162 C   0  0  0  0  0  0  0  0  0  0  0  0
   -2.5136    2.5513   -0.2567 O   0  0  0  0  0  0  0  0  0  0  0  0
   -0.4118    1.5279    0.0897 C   0  0  0  0  0  0  0  0  0  0  0  0
    0.2053    2.7671    0.0813 C   0  0  0  0  0  0  0  0  0  0  0  0
    1.5822    2.8681    0.2599 C   0  0  0  0  0  0  0  0  0  0  0  0
    2.3364    1.7411    0.4469 C   0  0  0  0  0  0  0  0  0  0  0  0
    1.7504    0.4509    0.4723 C   0  0  0  0  0  0  0  0  0  0  0  0
    0.3369    0.3430    0.2839 C   0  0  0  0  0  0  0  0  0  0  0  0
   -0.3200   -0.9472    0.2723 C   0  0  0  0  0  0  0  0  0  0  0  0
    0.2754   -2.0228    0.4540 O   0  0  0  0  0  0  0  0  0  0  0  0
    2.4946   -0.6397    0.6988 N   0  0  0  0  0  0  0  0  0  0  0  0
    3.9324   -0.6908    0.7614 C   0  0  0  0  0  0  0  0  0  0  0  0
    4.5840   -0.6332   -0.6275 C   0  0  0  0  0  0  0  0  0  0  0  0
    4.2916   -1.8394   -1.3034 O   0  0  0  0  0  0  0  0  0  0  0  0
   -5.5922   -1.1649   -0.5840 H   0  0  0  0  0  0  0  0  0  0  0  0
   -4.2802   -3.2363   -0.2708 H   0  0  0  0  0  0  0  0  0  0  0  0
   -1.8371   -3.0974    0.1233 H   0  0  0  0  0  0  0  0  0  0  0  0
   -4.4434    1.0364   -0.5045 H   0  0  0  0  0  0  0  0  0  0  0  0
   -0.4064    3.6432   -0.0689 H   0  0  0  0  0  0  0  0  0  0  0  0
    2.0528    3.8386    0.2482 H   0  0  0  0  0  0  0  0  0  0  0  0
    3.4005    1.8359    0.5809 H   0  0  0  0  0  0  0  0  0  0  0  0
    2.0035   -1.5262    0.6086 H   0  0  0  0  0  0  0  0  0  0  0  0
    4.2029   -1.6422    1.2204 H   0  0  0  0  0  0  0  0  0  0  0  0
    4.3186    0.1216    1.3791 H   0  0  0  0  0  0  0  0  0  0  0  0
    5.6681   -0.5155   -0.5045 H   0  0  0  0  0  0  0  0  0  0  0  0
    4.1886    0.2242   -1.1869 H   0  0  0  0  0  0  0  0  0  0  0  0
    4.6841   -1.8225   -2.1853 H   0  0  0  0  0  0  0  0  0  0  0  0
  1  2  4  0  0  0  0
  2  3  4  0  0  0  0
  3  4  4  0  0  0  0
  4  5  4  0  0  0  0
  1  6  4  0  0  0  0
  5  6  4  0  0  0  0
  5  7  1  0  0  0  0
  7  8  2  0  0  0  0
  7  9  1  0  0  0  0
  9 10  4  0  0  0  0
 10 11  4  0  0  0  0
 11 12  2  0  0  0  0
 12 13  4  0  0  0  0
  9 14  4  0  0  0  0
 13 14  4  0  0  0  0
  4 15  1  0  0  0  0
 14 15  1  0  0  0  0
 15 16  2  0  0  0  0
 13 17  4  0  0  0  0
 17 18  1  0  0  0  0
 18 19  1  0  0  0  0
 19 20  1  0  0  0  0
  1 21  1  0  0  0  0
  2 22  1  0  0  0  0
  3 23  1  0  0  0  0
  6 24  1  0  0  0  0
 10 25  1  0  0  0  0
 11 26  1  0  0  0  0
 12 27  1  0  0  0  0
 17 28  1  0  0  0  0
 18 29  1  0  0  0  0
 18 30  1  0  0  0  0
 19 31  1  0  0  0  0
 19 32  1  0  0  0  0
 20 33  1  0  0  0  0
M  END
