 xtb: 6.7.1 (edcfbbe)
          04112512243D

 22 21  0     0  0            999 V2000
    1.4219    1.0501   -0.8386 C   0  0  0  0  0  0  0  0  0  0  0  0
    1.2901    0.1140    0.3711 C   0  0  0  0  0  0  0  0  0  0  0  0
    1.7495   -1.3002    0.0015 C   0  0  0  0  0  0  0  0  0  0  0  0
    0.0008    0.1033    1.0587 N   0  0  0  0  0  0  0  0  0  0  0  0
   -1.2927   -0.0243    0.3913 C   0  0  0  0  0  0  0  0  0  0  0  0
   -1.3781   -1.2232   -0.5474 C   0  0  0  0  0  0  0  0  0  0  0  0
   -1.7885    1.2457   -0.3221 C   0  0  0  0  0  0  0  0  0  0  0  0
    2.4657    1.1020   -1.1394 H   0  0  0  0  0  0  0  0  0  0  0  0
    0.8452    0.6836   -1.6837 H   0  0  0  0  0  0  0  0  0  0  0  0
    1.0864    2.0542   -0.5885 H   0  0  0  0  0  0  0  0  0  0  0  0
    1.9873    0.4770    1.1383 H   0  0  0  0  0  0  0  0  0  0  0  0
    2.8244   -1.2978   -0.1623 H   0  0  0  0  0  0  0  0  0  0  0  0
    1.2698   -1.6573   -0.9034 H   0  0  0  0  0  0  0  0  0  0  0  0
    1.5221   -1.9830    0.8147 H   0  0  0  0  0  0  0  0  0  0  0  0
   -0.0537    0.9173    1.6592 H   0  0  0  0  0  0  0  0  0  0  0  0
   -1.9888   -0.2115    1.2234 H   0  0  0  0  0  0  0  0  0  0  0  0
   -2.4173   -1.3868   -0.8221 H   0  0  0  0  0  0  0  0  0  0  0  0
   -0.8116   -1.0520   -1.4582 H   0  0  0  0  0  0  0  0  0  0  0  0
   -1.0042   -2.1149   -0.0545 H   0  0  0  0  0  0  0  0  0  0  0  0
   -2.8466    1.1429   -0.5508 H   0  0  0  0  0  0  0  0  0  0  0  0
   -1.2555    1.4181   -1.2522 H   0  0  0  0  0  0  0  0  0  0  0  0
   -1.6616    2.1165    0.3189 H   0  0  0  0  0  0  0  0  0  0  0  0
  1  2  1  0  0  0  0
  2  3  1  0  0  0  0
  2  4  1  0  0  0  0
  4  5  1  0  0  0  0
  5  6  1  0  0  0  0
  5  7  1  0  0  0  0
  1  8  1  0  0  0  0
  1  9  1  0  0  0  0
  1 10  1  0  0  0  0
  2 11  1  0  0  0  0
  3 12  1  0  0  0  0
  3 13  1  0  0  0  0
  3 14  1  0  0  0  0
  4 15  1  0  0  0  0
  5 16  1  0  0  0  0
  6 17  1  0  0  0  0
  6 18  1  0  0  0  0
  6 19  1  0  0  0  0
  7 20  1  0  0  0  0
  7 21  1  0  0  0  0
  7 22  1  0  0  0  0
M  END
