 xtb: 6.7.1 (edcfbbe)
          04112515533D

 20 19  0     0  0            999 V2000
   -2.2360   -1.4452   -0.2339 C   0  0  0  0  0  0  0  0  0  0  0  0
   -2.5047    0.0306    0.0341 C   0  0  0  0  0  0  0  0  0  0  0  0
   -1.3443    0.6896    0.7900 C   0  0  0  0  0  0  0  0  0  0  0  0
   -0.1053    0.7098   -0.0670 C   0  0  0  0  0  0  0  0  0  0  0  0
   -0.0082    1.2792   -1.1355 O   0  0  0  0  0  0  0  0  0  0  0  0
    0.8831    0.0152    0.4770 O   0  0  0  0  0  0  0  0  0  0  0  0
    2.1264   -0.0675   -0.2397 C   0  0  0  0  0  0  0  0  0  0  0  0
    2.9965   -1.1078    0.4389 C   0  0  0  0  0  0  0  0  0  0  0  0
   -3.0863   -1.8996   -0.7352 H   0  0  0  0  0  0  0  0  0  0  0  0
   -1.3610   -1.5638   -0.8703 H   0  0  0  0  0  0  0  0  0  0  0  0
   -2.0575   -1.9762    0.6979 H   0  0  0  0  0  0  0  0  0  0  0  0
   -3.4130    0.1362    0.6279 H   0  0  0  0  0  0  0  0  0  0  0  0
   -2.6489    0.5569   -0.9115 H   0  0  0  0  0  0  0  0  0  0  0  0
   -1.1240    0.1491    1.7094 H   0  0  0  0  0  0  0  0  0  0  0  0
   -1.6054    1.7228    1.0224 H   0  0  0  0  0  0  0  0  0  0  0  0
    1.9099   -0.3300   -1.2807 H   0  0  0  0  0  0  0  0  0  0  0  0
    2.5952    0.9218   -0.2284 H   0  0  0  0  0  0  0  0  0  0  0  0
    3.1764   -0.8238    1.4714 H   0  0  0  0  0  0  0  0  0  0  0  0
    2.5029   -2.0750    0.4228 H   0  0  0  0  0  0  0  0  0  0  0  0
    3.9442   -1.1803   -0.0843 H   0  0  0  0  0  0  0  0  0  0  0  0
  1  2  1  0  0  0  0
  2  3  1  0  0  0  0
  3  4  1  0  0  0  0
  4  5  2  0  0  0  0
  4  6  1  0  0  0  0
  6  7  1  0  0  0  0
  7  8  1  0  0  0  0
  1  9  1  0  0  0  0
  1 10  1  0  0  0  0
  1 11  1  0  0  0  0
  2 12  1  0  0  0  0
  2 13  1  0  0  0  0
  3 14  1  0  0  0  0
  3 15  1  0  0  0  0
  7 16  1  0  0  0  0
  7 17  1  0  0  0  0
  8 18  1  0  0  0  0
  8 19  1  0  0  0  0
  8 20  1  0  0  0  0
M  END
