 xtb: 6.7.1 (edcfbbe)
          04112515543D

 17 16  0     0  0            999 V2000
    3.8377   -0.2829   -0.2985 C   0  0  0  0  0  0  0  0  0  0  0  0
    2.5234   -0.2317    0.4717 C   0  0  0  0  0  0  0  0  0  0  0  0
    1.3265   -0.0755   -0.4643 C   0  0  0  0  0  0  0  0  0  0  0  0
    0.0083   -0.0225    0.3093 C   0  0  0  0  0  0  0  0  0  0  0  0
   -1.1658    0.1358   -0.6395 C   0  0  0  0  0  0  0  0  0  0  0  0
   -2.7171    0.1976    0.2697 Cl  0  0  0  0  0  0  0  0  0  0  0  0
    4.6760   -0.3931    0.3847 H   0  0  0  0  0  0  0  0  0  0  0  0
    3.9793    0.6303   -0.8718 H   0  0  0  0  0  0  0  0  0  0  0  0
    3.8430   -1.1240   -0.9878 H   0  0  0  0  0  0  0  0  0  0  0  0
    2.4084   -1.1477    1.0547 H   0  0  0  0  0  0  0  0  0  0  0  0
    2.5455    0.6058    1.1719 H   0  0  0  0  0  0  0  0  0  0  0  0
    1.3034   -0.9140   -1.1629 H   0  0  0  0  0  0  0  0  0  0  0  0
    1.4419    0.8404   -1.0469 H   0  0  0  0  0  0  0  0  0  0  0  0
    0.0264    0.8159    1.0079 H   0  0  0  0  0  0  0  0  0  0  0  0
   -0.1138   -0.9390    0.8892 H   0  0  0  0  0  0  0  0  0  0  0  0
   -1.1062    1.0666   -1.2009 H   0  0  0  0  0  0  0  0  0  0  0  0
   -1.2477   -0.7084   -1.3220 H   0  0  0  0  0  0  0  0  0  0  0  0
  1  2  1  0  0  0  0
  2  3  1  0  0  0  0
  3  4  1  0  0  0  0
  4  5  1  0  0  0  0
  5  6  1  0  0  0  0
  1  7  1  0  0  0  0
  1  8  1  0  0  0  0
  1  9  1  0  0  0  0
  2 10  1  0  0  0  0
  2 11  1  0  0  0  0
  3 12  1  0  0  0  0
  3 13  1  0  0  0  0
  4 14  1  0  0  0  0
  4 15  1  0  0  0  0
  5 16  1  0  0  0  0
  5 17  1  0  0  0  0
M  END
