 xtb: 6.7.1 (edcfbbe)
          04112513313D

 31 32  0     0  0            999 V2000
   -3.8151    0.9270   -1.6284 C   0  0  0  0  0  0  0  0  0  0  0  0
   -3.3079   -0.1268   -0.6423 C   0  0  0  0  0  0  0  0  0  0  0  0
   -3.5660   -1.1282   -0.9972 H   0  0  0  0  0  0  0  0  0  0  0  0
   -1.8086   -0.0505   -0.4536 C   0  0  0  0  0  0  0  0  0  0  0  0
   -1.1957    1.1146   -0.0059 C   0  0  0  0  0  0  0  0  0  0  0  0
    0.1739    1.1748    0.1570 C   0  0  0  0  0  0  0  0  0  0  0  0
    0.9905    0.0760   -0.1087 C   0  0  0  0  0  0  0  0  0  0  0  0
    0.3501   -1.0767   -0.5497 C   0  0  0  0  0  0  0  0  0  0  0  0
   -1.0166   -1.1571   -0.7252 C   0  0  0  0  0  0  0  0  0  0  0  0
    1.0869   -2.1859   -0.8564 F   0  0  0  0  0  0  0  0  0  0  0  0
    2.4487    0.1541    0.0715 C   0  0  0  0  0  0  0  0  0  0  0  0
    3.1498   -0.8658    0.7092 C   0  0  0  0  0  0  0  0  0  0  0  0
    4.5189   -0.7715    0.8808 C   0  0  0  0  0  0  0  0  0  0  0  0
    5.2055    0.3377    0.4160 C   0  0  0  0  0  0  0  0  0  0  0  0
    4.5156    1.3566   -0.2203 C   0  0  0  0  0  0  0  0  0  0  0  0
    3.1465    1.2686   -0.3892 C   0  0  0  0  0  0  0  0  0  0  0  0
   -3.9316    0.0240    0.7325 C   0  0  0  0  0  0  0  0  0  0  0  0
   -4.2579   -0.9190    1.4231 O   0  0  0  0  0  0  0  0  0  0  0  0
   -4.0557    1.2749    1.1264 O   0  0  0  0  0  0  0  0  0  0  0  0
   -4.8853    0.8111   -1.7777 H   0  0  0  0  0  0  0  0  0  0  0  0
   -3.6211    1.9281   -1.2581 H   0  0  0  0  0  0  0  0  0  0  0  0
   -3.3111    0.7990   -2.5821 H   0  0  0  0  0  0  0  0  0  0  0  0
   -1.7960    1.9800    0.2252 H   0  0  0  0  0  0  0  0  0  0  0  0
    0.6317    2.0828    0.5167 H   0  0  0  0  0  0  0  0  0  0  0  0
   -1.4450   -2.0830   -1.0752 H   0  0  0  0  0  0  0  0  0  0  0  0
    2.6200   -1.7298    1.0824 H   0  0  0  0  0  0  0  0  0  0  0  0
    5.0504   -1.5679    1.3797 H   0  0  0  0  0  0  0  0  0  0  0  0
    6.2745    0.4068    0.5484 H   0  0  0  0  0  0  0  0  0  0  0  0
    5.0468    2.2217   -0.5876 H   0  0  0  0  0  0  0  0  0  0  0  0
    2.6125    2.0561   -0.8993 H   0  0  0  0  0  0  0  0  0  0  0  0
   -4.4352    1.3548    2.0232 H   0  0  0  0  0  0  0  0  0  0  0  0
  1  2  1  0  0  0  0
  2  3  1  0  0  0  0
  2  4  1  0  0  0  0
  4  5  4  0  0  0  0
  5  6  4  0  0  0  0
  6  7  4  0  0  0  0
  7  8  4  0  0  0  0
  4  9  4  0  0  0  0
  8  9  4  0  0  0  0
  8 10  1  0  0  0  0
  7 11  1  0  0  0  0
 11 12  4  0  0  0  0
 12 13  4  0  0  0  0
 13 14  4  0  0  0  0
 14 15  4  0  0  0  0
 11 16  4  0  0  0  0
 15 16  4  0  0  0  0
  2 17  1  0  0  0  0
 17 18  2  0  0  0  0
 17 19  1  0  0  0  0
  1 20  1  0  0  0  0
  1 21  1  0  0  0  0
  1 22  1  0  0  0  0
  5 23  1  0  0  0  0
  6 24  1  0  0  0  0
  9 25  1  0  0  0  0
 12 26  1  0  0  0  0
 13 27  1  0  0  0  0
 14 28  1  0  0  0  0
 15 29  1  0  0  0  0
 16 30  1  0  0  0  0
 19 31  1  0  0  0  0
M  END
