 xtb: 6.7.1 (edcfbbe)
          04112515593D

 20 19  0     0  0            999 V2000
   -3.2505   -0.9000   -0.3199 C   0  0  0  0  0  0  0  0  0  0  0  0
   -1.8577   -0.6276    0.2353 C   0  0  0  0  0  0  0  0  0  0  0  0
   -1.4996    0.8548    0.1522 C   0  0  0  0  0  0  0  0  0  0  0  0
   -0.1159    1.1436    0.7451 C   0  0  0  0  0  0  0  0  0  0  0  0
    0.9570    0.4829   -0.0800 C   0  0  0  0  0  0  0  0  0  0  0  0
    1.1564    0.6904   -1.2588 O   0  0  0  0  0  0  0  0  0  0  0  0
    1.6670   -0.3813    0.6369 O   0  0  0  0  0  0  0  0  0  0  0  0
    2.7209   -1.0924   -0.0182 C   0  0  0  0  0  0  0  0  0  0  0  0
   -3.4874   -1.9586   -0.2534 H   0  0  0  0  0  0  0  0  0  0  0  0
   -3.9977   -0.3430    0.2400 H   0  0  0  0  0  0  0  0  0  0  0  0
   -3.3085   -0.5992   -1.3633 H   0  0  0  0  0  0  0  0  0  0  0  0
   -1.8096   -0.9534    1.2763 H   0  0  0  0  0  0  0  0  0  0  0  0
   -1.1222   -1.2076   -0.3282 H   0  0  0  0  0  0  0  0  0  0  0  0
   -2.2444    1.4393    0.6935 H   0  0  0  0  0  0  0  0  0  0  0  0
   -1.5062    1.1735   -0.8922 H   0  0  0  0  0  0  0  0  0  0  0  0
   -0.0455    0.7770    1.7683 H   0  0  0  0  0  0  0  0  0  0  0  0
    0.0663    2.2190    0.7270 H   0  0  0  0  0  0  0  0  0  0  0  0
    2.9484   -1.9405    0.6201 H   0  0  0  0  0  0  0  0  0  0  0  0
    3.5904   -0.4434   -0.1250 H   0  0  0  0  0  0  0  0  0  0  0  0
    2.3937   -1.4176   -1.0066 H   0  0  0  0  0  0  0  0  0  0  0  0
  1  2  1  0  0  0  0
  2  3  1  0  0  0  0
  3  4  1  0  0  0  0
  4  5  1  0  0  0  0
  5  6  2  0  0  0  0
  5  7  1  0  0  0  0
  7  8  1  0  0  0  0
  1  9  1  0  0  0  0
  1 10  1  0  0  0  0
  1 11  1  0  0  0  0
  2 12  1  0  0  0  0
  2 13  1  0  0  0  0
  3 14  1  0  0  0  0
  3 15  1  0  0  0  0
  4 16  1  0  0  0  0
  4 17  1  0  0  0  0
  8 18  1  0  0  0  0
  8 19  1  0  0  0  0
  8 20  1  0  0  0  0
M  END
