 xtb: 6.7.1 (edcfbbe)
          04112515533D

 20 19  0     0  0            999 V2000
   -2.2857   -1.4708   -0.2052 C   0  0  0  0  0  0  0  0  0  0  0  0
   -2.4748    0.0367   -0.0867 C   0  0  0  0  0  0  0  0  0  0  0  0
   -1.3491    0.6829    0.7234 C   0  0  0  0  0  0  0  0  0  0  0  0
   -0.0337    0.6221   -0.0109 C   0  0  0  0  0  0  0  0  0  0  0  0
    0.1136    0.8387   -1.1954 O   0  0  0  0  0  0  0  0  0  0  0  0
    0.9657    0.3248    0.8120 O   0  0  0  0  0  0  0  0  0  0  0  0
    2.2962    0.2381    0.2749 C   0  0  0  0  0  0  0  0  0  0  0  0
    2.5864   -1.1635   -0.2400 C   0  0  0  0  0  0  0  0  0  0  0  0
   -1.3554   -1.6954   -0.7235 H   0  0  0  0  0  0  0  0  0  0  0  0
   -2.2524   -1.9312    0.7793 H   0  0  0  0  0  0  0  0  0  0  0  0
   -3.1044   -1.9125   -0.7669 H   0  0  0  0  0  0  0  0  0  0  0  0
   -3.4275    0.2500    0.3985 H   0  0  0  0  0  0  0  0  0  0  0  0
   -2.4873    0.4828   -1.0829 H   0  0  0  0  0  0  0  0  0  0  0  0
   -1.2276    0.1998    1.6923 H   0  0  0  0  0  0  0  0  0  0  0  0
   -1.5735    1.7396    0.8840 H   0  0  0  0  0  0  0  0  0  0  0  0
    2.3966    0.9731   -0.5295 H   0  0  0  0  0  0  0  0  0  0  0  0
    2.9483    0.4971    1.1095 H   0  0  0  0  0  0  0  0  0  0  0  0
    2.4244   -1.8927    0.5490 H   0  0  0  0  0  0  0  0  0  0  0  0
    1.9318   -1.3957   -1.0772 H   0  0  0  0  0  0  0  0  0  0  0  0
    3.6173   -1.2183   -0.5741 H   0  0  0  0  0  0  0  0  0  0  0  0
  1  2  1  0  0  0  0
  2  3  1  0  0  0  0
  3  4  1  0  0  0  0
  4  5  2  0  0  0  0
  4  6  1  0  0  0  0
  6  7  1  0  0  0  0
  7  8  1  0  0  0  0
  1  9  1  0  0  0  0
  1 10  1  0  0  0  0
  1 11  1  0  0  0  0
  2 12  1  0  0  0  0
  2 13  1  0  0  0  0
  3 14  1  0  0  0  0
  3 15  1  0  0  0  0
  7 16  1  0  0  0  0
  7 17  1  0  0  0  0
  8 18  1  0  0  0  0
  8 19  1  0  0  0  0
  8 20  1  0  0  0  0
M  END
