 xtb: 6.7.1 (edcfbbe)
          04112512263D

 13 12  0     0  0            999 V2000
    1.7521    0.6700    0.4137 C   0  0  0  0  0  0  0  0  0  0  0  0
    1.3697   -0.3829   -0.2843 C   0  0  0  0  0  0  0  0  0  0  0  0
   -0.0515   -0.8210   -0.4938 C   0  0  0  0  0  0  0  0  0  0  0  0
   -1.0317   -0.1313    0.4003 C   0  0  0  0  0  0  0  0  0  0  0  0
   -2.0173    0.6378   -0.0222 C   0  0  0  0  0  0  0  0  0  0  0  0
    2.7907    0.9339    0.5175 H   0  0  0  0  0  0  0  0  0  0  0  0
    1.0430    1.3136    0.9072 H   0  0  0  0  0  0  0  0  0  0  0  0
    2.1078   -1.0028   -0.7772 H   0  0  0  0  0  0  0  0  0  0  0  0
   -0.1044   -1.8999   -0.3147 H   0  0  0  0  0  0  0  0  0  0  0  0
   -0.3169   -0.6506   -1.5414 H   0  0  0  0  0  0  0  0  0  0  0  0
   -0.8878   -0.3036    1.4592 H   0  0  0  0  0  0  0  0  0  0  0  0
   -2.7062    1.1103    0.6572 H   0  0  0  0  0  0  0  0  0  0  0  0
   -2.1788    0.8261   -1.0711 H   0  0  0  0  0  0  0  0  0  0  0  0
  1  2  2  0  0  0  0
  2  3  1  0  0  0  0
  3  4  1  0  0  0  0
  4  5  2  0  0  0  0
  1  6  1  0  0  0  0
  1  7  1  0  0  0  0
  2  8  1  0  0  0  0
  3  9  1  0  0  0  0
  3 10  1  0  0  0  0
  4 11  1  0  0  0  0
  5 12  1  0  0  0  0
  5 13  1  0  0  0  0
M  END
