 xtb: 6.7.1 (edcfbbe)
          04112515563D

 33 35  0     0  0            999 V2000
   -4.6376   -0.9509   -0.3130 C   0  0  0  0  0  0  0  0  0  0  0  0
   -3.9727   -2.1553   -0.1280 C   0  0  0  0  0  0  0  0  0  0  0  0
   -2.6020   -2.1689    0.0503 C   0  0  0  0  0  0  0  0  0  0  0  0
   -1.8708   -0.9827    0.0466 C   0  0  0  0  0  0  0  0  0  0  0  0
   -2.5429    0.2302   -0.1404 C   0  0  0  0  0  0  0  0  0  0  0  0
   -3.9253    0.2331   -0.3186 C   0  0  0  0  0  0  0  0  0  0  0  0
   -1.8077    1.5010   -0.1529 C   0  0  0  0  0  0  0  0  0  0  0  0
   -2.3865    2.5751   -0.3107 O   0  0  0  0  0  0  0  0  0  0  0  0
   -0.3489    1.4269    0.0299 C   0  0  0  0  0  0  0  0  0  0  0  0
    0.3475    2.6221   -0.0105 C   0  0  0  0  0  0  0  0  0  0  0  0
    1.7329    2.6363    0.1332 C   0  0  0  0  0  0  0  0  0  0  0  0
    2.4164    1.4687    0.3371 C   0  0  0  0  0  0  0  0  0  0  0  0
    1.7458    0.2234    0.4113 C   0  0  0  0  0  0  0  0  0  0  0  0
    0.3265    0.1991    0.2350 C   0  0  0  0  0  0  0  0  0  0  0  0
   -0.4088   -1.0456    0.2444 C   0  0  0  0  0  0  0  0  0  0  0  0
    0.1251   -2.1592    0.4032 O   0  0  0  0  0  0  0  0  0  0  0  0
    2.4132   -0.9097    0.6636 N   0  0  0  0  0  0  0  0  0  0  0  0
    3.8354   -1.0754    0.8149 C   0  0  0  0  0  0  0  0  0  0  0  0
    4.5638   -1.2469   -0.5261 C   0  0  0  0  0  0  0  0  0  0  0  0
    4.6592    0.0082   -1.1671 O   0  0  0  0  0  0  0  0  0  0  0  0
   -5.7072   -0.9372   -0.4521 H   0  0  0  0  0  0  0  0  0  0  0  0
   -4.5240   -3.0825   -0.1227 H   0  0  0  0  0  0  0  0  0  0  0  0
   -2.0666   -3.0954    0.1967 H   0  0  0  0  0  0  0  0  0  0  0  0
   -4.4156    1.1850   -0.4604 H   0  0  0  0  0  0  0  0  0  0  0  0
   -0.2088    3.5335   -0.1680 H   0  0  0  0  0  0  0  0  0  0  0  0
    2.2660    3.5724    0.0784 H   0  0  0  0  0  0  0  0  0  0  0  0
    3.4900    1.4873    0.4091 H   0  0  0  0  0  0  0  0  0  0  0  0
    1.8484   -1.7563    0.6175 H   0  0  0  0  0  0  0  0  0  0  0  0
    3.9968   -1.9742    1.4108 H   0  0  0  0  0  0  0  0  0  0  0  0
    4.2651   -0.2217    1.3412 H   0  0  0  0  0  0  0  0  0  0  0  0
    4.0083   -1.9593   -1.1487 H   0  0  0  0  0  0  0  0  0  0  0  0
    5.5658   -1.6494   -0.3294 H   0  0  0  0  0  0  0  0  0  0  0  0
    5.0670   -0.0983   -2.0357 H   0  0  0  0  0  0  0  0  0  0  0  0
  1  2  4  0  0  0  0
  2  3  4  0  0  0  0
  3  4  4  0  0  0  0
  4  5  4  0  0  0  0
  1  6  4  0  0  0  0
  5  6  4  0  0  0  0
  5  7  1  0  0  0  0
  7  8  2  0  0  0  0
  7  9  1  0  0  0  0
  9 10  4  0  0  0  0
 10 11  4  0  0  0  0
 11 12  2  0  0  0  0
 12 13  4  0  0  0  0
  9 14  4  0  0  0  0
 13 14  4  0  0  0  0
  4 15  1  0  0  0  0
 14 15  1  0  0  0  0
 15 16  2  0  0  0  0
 13 17  4  0  0  0  0
 17 18  1  0  0  0  0
 18 19  1  0  0  0  0
 19 20  1  0  0  0  0
  1 21  1  0  0  0  0
  2 22  1  0  0  0  0
  3 23  1  0  0  0  0
  6 24  1  0  0  0  0
 10 25  1  0  0  0  0
 11 26  1  0  0  0  0
 12 27  1  0  0  0  0
 17 28  1  0  0  0  0
 18 29  1  0  0  0  0
 18 30  1  0  0  0  0
 19 31  1  0  0  0  0
 19 32  1  0  0  0  0
 20 33  1  0  0  0  0
M  END
