 xtb: 6.7.1 (edcfbbe)
          04112512293D

 16 15  0     0  0            999 V2000
    2.3927   -0.3208   -0.1772 C   0  0  0  0  0  0  0  0  0  0  0  0
    0.9954    0.2399   -0.4110 C   0  0  0  0  0  0  0  0  0  0  0  0
    0.0622   -0.0525    0.7609 C   0  0  0  0  0  0  0  0  0  0  0  0
   -1.3590    0.4451    0.5015 C   0  0  0  0  0  0  0  0  0  0  0  0
   -1.9479   -0.2472   -0.6379 N   0  0  0  0  0  0  0  0  0  0  0  0
    3.0398   -0.0956   -1.0212 H   0  0  0  0  0  0  0  0  0  0  0  0
    2.8327    0.1118    0.7189 H   0  0  0  0  0  0  0  0  0  0  0  0
    2.3547   -1.4006   -0.0521 H   0  0  0  0  0  0  0  0  0  0  0  0
    1.0552    1.3202   -0.5581 H   0  0  0  0  0  0  0  0  0  0  0  0
    0.5660   -0.1944   -1.3142 H   0  0  0  0  0  0  0  0  0  0  0  0
    0.0345   -1.1302    0.9401 H   0  0  0  0  0  0  0  0  0  0  0  0
    0.4432    0.4273    1.6648 H   0  0  0  0  0  0  0  0  0  0  0  0
   -1.3323    1.5114    0.2590 H   0  0  0  0  0  0  0  0  0  0  0  0
   -1.9511    0.3257    1.4265 H   0  0  0  0  0  0  0  0  0  0  0  0
   -2.8925    0.0856   -0.7924 H   0  0  0  0  0  0  0  0  0  0  0  0
   -2.0006   -1.2411   -0.4395 H   0  0  0  0  0  0  0  0  0  0  0  0
  1  2  1  0  0  0  0
  2  3  1  0  0  0  0
  3  4  1  0  0  0  0
  4  5  1  0  0  0  0
  1  6  1  0  0  0  0
  1  7  1  0  0  0  0
  1  8  1  0  0  0  0
  2  9  1  0  0  0  0
  2 10  1  0  0  0  0
  3 11  1  0  0  0  0
  3 12  1  0  0  0  0
  4 13  1  0  0  0  0
  4 14  1  0  0  0  0
  5 15  1  0  0  0  0
  5 16  1  0  0  0  0
M  END
