 xtb: 6.7.1 (edcfbbe)
          04112515543D

 17 16  0     0  0            999 V2000
    2.9953   -0.7513   -0.1469 C   0  0  0  0  0  0  0  0  0  0  0  0
    1.5458   -0.4119    0.1810 C   0  0  0  0  0  0  0  0  0  0  0  0
    1.1941    1.0080   -0.2581 C   0  0  0  0  0  0  0  0  0  0  0  0
   -0.2007    1.4698    0.1679 C   0  0  0  0  0  0  0  0  0  0  0  0
   -1.3461    0.7508   -0.5285 C   0  0  0  0  0  0  0  0  0  0  0  0
   -1.7480   -0.8243    0.2488 Cl  0  0  0  0  0  0  0  0  0  0  0  0
    3.2291   -1.7667    0.1635 H   0  0  0  0  0  0  0  0  0  0  0  0
    3.6723   -0.0708    0.3649 H   0  0  0  0  0  0  0  0  0  0  0  0
    3.1723   -0.6700   -1.2170 H   0  0  0  0  0  0  0  0  0  0  0  0
    0.8905   -1.1286   -0.3156 H   0  0  0  0  0  0  0  0  0  0  0  0
    1.3847   -0.5079    1.2573 H   0  0  0  0  0  0  0  0  0  0  0  0
    1.2801    1.0797   -1.3445 H   0  0  0  0  0  0  0  0  0  0  0  0
    1.9239    1.6947    0.1764 H   0  0  0  0  0  0  0  0  0  0  0  0
   -0.2980    2.5295   -0.0771 H   0  0  0  0  0  0  0  0  0  0  0  0
   -0.3100    1.3669    1.2487 H   0  0  0  0  0  0  0  0  0  0  0  0
   -2.2643    1.3325   -0.4747 H   0  0  0  0  0  0  0  0  0  0  0  0
   -1.1069    0.5247   -1.5661 H   0  0  0  0  0  0  0  0  0  0  0  0
  1  2  1  0  0  0  0
  2  3  1  0  0  0  0
  3  4  1  0  0  0  0
  4  5  1  0  0  0  0
  5  6  1  0  0  0  0
  1  7  1  0  0  0  0
  1  8  1  0  0  0  0
  1  9  1  0  0  0  0
  2 10  1  0  0  0  0
  2 11  1  0  0  0  0
  3 12  1  0  0  0  0
  3 13  1  0  0  0  0
  4 14  1  0  0  0  0
  4 15  1  0  0  0  0
  5 16  1  0  0  0  0
  5 17  1  0  0  0  0
M  END
