 xtb: 6.7.1 (edcfbbe)
          04112515593D

 20 19  0     0  0            999 V2000
   -3.2188   -1.0490    0.0230 C   0  0  0  0  0  0  0  0  0  0  0  0
   -2.7152    0.3358    0.4130 C   0  0  0  0  0  0  0  0  0  0  0  0
   -1.2016    0.3891    0.6194 C   0  0  0  0  0  0  0  0  0  0  0  0
   -0.4198    0.1525   -0.6822 C   0  0  0  0  0  0  0  0  0  0  0  0
    1.0460    0.3455   -0.4087 C   0  0  0  0  0  0  0  0  0  0  0  0
    1.6645    1.3703   -0.6108 O   0  0  0  0  0  0  0  0  0  0  0  0
    1.5898   -0.7454    0.1181 O   0  0  0  0  0  0  0  0  0  0  0  0
    2.9703   -0.7057    0.4893 C   0  0  0  0  0  0  0  0  0  0  0  0
   -2.8988   -1.7891    0.7526 H   0  0  0  0  0  0  0  0  0  0  0  0
   -4.3051   -1.0535   -0.0164 H   0  0  0  0  0  0  0  0  0  0  0  0
   -2.8448   -1.3410   -0.9543 H   0  0  0  0  0  0  0  0  0  0  0  0
   -3.0005    1.0583   -0.3538 H   0  0  0  0  0  0  0  0  0  0  0  0
   -3.1940    0.6369    1.3468 H   0  0  0  0  0  0  0  0  0  0  0  0
   -0.9050   -0.3640    1.3519 H   0  0  0  0  0  0  0  0  0  0  0  0
   -0.9302    1.3714    1.0137 H   0  0  0  0  0  0  0  0  0  0  0  0
   -0.7323    0.8716   -1.4388 H   0  0  0  0  0  0  0  0  0  0  0  0
   -0.5811   -0.8648   -1.0336 H   0  0  0  0  0  0  0  0  0  0  0  0
    3.3246   -1.7312    0.4422 H   0  0  0  0  0  0  0  0  0  0  0  0
    3.0618   -0.3132    1.5023 H   0  0  0  0  0  0  0  0  0  0  0  0
    3.5228   -0.0646   -0.1987 H   0  0  0  0  0  0  0  0  0  0  0  0
  1  2  1  0  0  0  0
  2  3  1  0  0  0  0
  3  4  1  0  0  0  0
  4  5  1  0  0  0  0
  5  6  2  0  0  0  0
  5  7  1  0  0  0  0
  7  8  1  0  0  0  0
  1  9  1  0  0  0  0
  1 10  1  0  0  0  0
  1 11  1  0  0  0  0
  2 12  1  0  0  0  0
  2 13  1  0  0  0  0
  3 14  1  0  0  0  0
  3 15  1  0  0  0  0
  4 16  1  0  0  0  0
  4 17  1  0  0  0  0
  8 18  1  0  0  0  0
  8 19  1  0  0  0  0
  8 20  1  0  0  0  0
M  END
