 xtb: 6.7.1 (edcfbbe)
          04112515593D

 20 19  0     0  0            999 V2000
   -1.7294   -1.3496    0.3579 C   0  0  0  0  0  0  0  0  0  0  0  0
   -2.3771   -0.0203   -0.0099 C   0  0  0  0  0  0  0  0  0  0  0  0
   -1.4357    0.9285   -0.7514 C   0  0  0  0  0  0  0  0  0  0  0  0
   -0.2752    1.4309    0.1142 C   0  0  0  0  0  0  0  0  0  0  0  0
    0.8122    0.4145    0.3402 C   0  0  0  0  0  0  0  0  0  0  0  0
    1.3487    0.2060    1.4110 O   0  0  0  0  0  0  0  0  0  0  0  0
    1.1704   -0.2052   -0.7782 O   0  0  0  0  0  0  0  0  0  0  0  0
    2.2161   -1.1734   -0.6896 C   0  0  0  0  0  0  0  0  0  0  0  0
   -0.9195   -1.2050    1.0704 H   0  0  0  0  0  0  0  0  0  0  0  0
   -2.4605   -2.0128    0.8140 H   0  0  0  0  0  0  0  0  0  0  0  0
   -1.3283   -1.8360   -0.5288 H   0  0  0  0  0  0  0  0  0  0  0  0
   -3.2402   -0.2150   -0.6497 H   0  0  0  0  0  0  0  0  0  0  0  0
   -2.7396    0.4674    0.8974 H   0  0  0  0  0  0  0  0  0  0  0  0
   -2.0093    1.7960   -1.0806 H   0  0  0  0  0  0  0  0  0  0  0  0
   -1.0328    0.4322   -1.6348 H   0  0  0  0  0  0  0  0  0  0  0  0
   -0.6303    1.7660    1.0894 H   0  0  0  0  0  0  0  0  0  0  0  0
    0.2009    2.2761   -0.3882 H   0  0  0  0  0  0  0  0  0  0  0  0
    1.8857   -2.0246   -0.0926 H   0  0  0  0  0  0  0  0  0  0  0  0
    3.0964   -0.7326   -0.2199 H   0  0  0  0  0  0  0  0  0  0  0  0
    2.4259   -1.4737   -1.7113 H   0  0  0  0  0  0  0  0  0  0  0  0
  1  2  1  0  0  0  0
  2  3  1  0  0  0  0
  3  4  1  0  0  0  0
  4  5  1  0  0  0  0
  5  6  2  0  0  0  0
  5  7  1  0  0  0  0
  7  8  1  0  0  0  0
  1  9  1  0  0  0  0
  1 10  1  0  0  0  0
  1 11  1  0  0  0  0
  2 12  1  0  0  0  0
  2 13  1  0  0  0  0
  3 14  1  0  0  0  0
  3 15  1  0  0  0  0
  4 16  1  0  0  0  0
  4 17  1  0  0  0  0
  8 18  1  0  0  0  0
  8 19  1  0  0  0  0
  8 20  1  0  0  0  0
M  END
