 xtb: 6.7.1 (edcfbbe)
          04112515593D

 20 19  0     0  0            999 V2000
   -3.8302    0.3208    0.3904 C   0  0  0  0  0  0  0  0  0  0  0  0
   -2.6692   -0.5880    0.0048 C   0  0  0  0  0  0  0  0  0  0  0  0
   -1.3357    0.1528    0.0657 C   0  0  0  0  0  0  0  0  0  0  0  0
   -0.1627   -0.7612   -0.3074 C   0  0  0  0  0  0  0  0  0  0  0  0
    1.1209    0.0247   -0.3366 C   0  0  0  0  0  0  0  0  0  0  0  0
    1.3319    0.9846   -1.0484 O   0  0  0  0  0  0  0  0  0  0  0  0
    2.0035   -0.4452    0.5368 O   0  0  0  0  0  0  0  0  0  0  0  0
    3.2732    0.2071    0.6387 C   0  0  0  0  0  0  0  0  0  0  0  0
   -3.8855    1.1735   -0.2825 H   0  0  0  0  0  0  0  0  0  0  0  0
   -4.7710   -0.2209    0.3383 H   0  0  0  0  0  0  0  0  0  0  0  0
   -3.7026    0.6933    1.4042 H   0  0  0  0  0  0  0  0  0  0  0  0
   -2.6369   -1.4438    0.6816 H   0  0  0  0  0  0  0  0  0  0  0  0
   -2.8253   -0.9670   -1.0068 H   0  0  0  0  0  0  0  0  0  0  0  0
   -1.1818    0.5428    1.0742 H   0  0  0  0  0  0  0  0  0  0  0  0
   -1.3503    1.0016   -0.6214 H   0  0  0  0  0  0  0  0  0  0  0  0
   -0.3313   -1.1681   -1.3060 H   0  0  0  0  0  0  0  0  0  0  0  0
   -0.0608   -1.5774    0.4064 H   0  0  0  0  0  0  0  0  0  0  0  0
    3.9517   -0.2031   -0.1094 H   0  0  0  0  0  0  0  0  0  0  0  0
    3.6372    0.0010    1.6408 H   0  0  0  0  0  0  0  0  0  0  0  0
    3.1556    1.2785    0.4723 H   0  0  0  0  0  0  0  0  0  0  0  0
  1  2  1  0  0  0  0
  2  3  1  0  0  0  0
  3  4  1  0  0  0  0
  4  5  1  0  0  0  0
  5  6  2  0  0  0  0
  5  7  1  0  0  0  0
  7  8  1  0  0  0  0
  1  9  1  0  0  0  0
  1 10  1  0  0  0  0
  1 11  1  0  0  0  0
  2 12  1  0  0  0  0
  2 13  1  0  0  0  0
  3 14  1  0  0  0  0
  3 15  1  0  0  0  0
  4 16  1  0  0  0  0
  4 17  1  0  0  0  0
  8 18  1  0  0  0  0
  8 19  1  0  0  0  0
  8 20  1  0  0  0  0
M  END
