 xtb: 6.7.1 (edcfbbe)
          04112515533D

 20 19  0     0  0            999 V2000
   -2.6273   -0.9697   -0.6190 C   0  0  0  0  0  0  0  0  0  0  0  0
   -2.0885   -0.5309    0.7371 C   0  0  0  0  0  0  0  0  0  0  0  0
   -1.3427    0.8072    0.6473 C   0  0  0  0  0  0  0  0  0  0  0  0
   -0.1023    0.6763   -0.1988 C   0  0  0  0  0  0  0  0  0  0  0  0
    0.0756    1.2331   -1.2638 O   0  0  0  0  0  0  0  0  0  0  0  0
    0.7862   -0.1297    0.3629 O   0  0  0  0  0  0  0  0  0  0  0  0
    2.0319   -0.3679   -0.3125 C   0  0  0  0  0  0  0  0  0  0  0  0
    3.0977   -0.6539    0.7293 C   0  0  0  0  0  0  0  0  0  0  0  0
   -3.3288   -0.2346   -1.0065 H   0  0  0  0  0  0  0  0  0  0  0  0
   -1.8182   -1.0737   -1.3399 H   0  0  0  0  0  0  0  0  0  0  0  0
   -3.1386   -1.9249   -0.5337 H   0  0  0  0  0  0  0  0  0  0  0  0
   -1.4078   -1.2880    1.1290 H   0  0  0  0  0  0  0  0  0  0  0  0
   -2.9164   -0.4193    1.4379 H   0  0  0  0  0  0  0  0  0  0  0  0
   -1.0368    1.1180    1.6465 H   0  0  0  0  0  0  0  0  0  0  0  0
   -1.9798    1.5713    0.2026 H   0  0  0  0  0  0  0  0  0  0  0  0
    1.8916   -1.2228   -0.9816 H   0  0  0  0  0  0  0  0  0  0  0  0
    2.2741    0.5127   -0.9163 H   0  0  0  0  0  0  0  0  0  0  0  0
    3.2211    0.2033    1.3852 H   0  0  0  0  0  0  0  0  0  0  0  0
    2.8098   -1.5137    1.3268 H   0  0  0  0  0  0  0  0  0  0  0  0
    4.0392   -0.8611    0.2317 H   0  0  0  0  0  0  0  0  0  0  0  0
  1  2  1  0  0  0  0
  2  3  1  0  0  0  0
  3  4  1  0  0  0  0
  4  5  2  0  0  0  0
  4  6  1  0  0  0  0
  6  7  1  0  0  0  0
  7  8  1  0  0  0  0
  1  9  1  0  0  0  0
  1 10  1  0  0  0  0
  1 11  1  0  0  0  0
  2 12  1  0  0  0  0
  2 13  1  0  0  0  0
  3 14  1  0  0  0  0
  3 15  1  0  0  0  0
  7 16  1  0  0  0  0
  7 17  1  0  0  0  0
  8 18  1  0  0  0  0
  8 19  1  0  0  0  0
  8 20  1  0  0  0  0
M  END
