 xtb: 6.7.1 (edcfbbe)
          04112512273D

 13 13  0     0  0            999 V2000
   -1.9758    0.8049    0.4390 C   0  0  0  0  0  0  0  0  0  0  0  0
   -1.4921   -0.5332   -0.1038 C   0  0  0  0  0  0  0  0  0  0  0  0
   -0.2165   -0.3878   -0.9498 C   0  0  0  0  0  0  0  0  0  0  0  0
    0.8910   -0.0643   -0.0633 N   0  0  0  0  0  0  0  0  0  0  0  0
    1.1907    1.1032    0.0834 O   0  0  0  0  0  0  0  0  0  0  0  0
    1.4360   -0.9796    0.5217 O   0  0  0  0  0  0  0  0  0  0  0  0
   -1.2085    1.2893    1.0401 H   0  0  0  0  0  0  0  0  0  0  0  0
   -2.2410    1.4743   -0.3752 H   0  0  0  0  0  0  0  0  0  0  0  0
   -2.8522    0.6585    1.0637 H   0  0  0  0  0  0  0  0  0  0  0  0
   -2.2618   -0.9699   -0.7392 H   0  0  0  0  0  0  0  0  0  0  0  0
   -1.2941   -1.2265    0.7161 H   0  0  0  0  0  0  0  0  0  0  0  0
    0.0131   -1.3353   -1.4374 H   0  0  0  0  0  0  0  0  0  0  0  0
   -0.3275    0.4244   -1.6683 H   0  0  0  0  0  0  0  0  0  0  0  0
  1  2  1  0  0  0  0
  2  3  1  0  0  0  0
  3  4  1  0  0  0  0
  4  5  4  0  0  0  0
  4  6  4  0  0  0  0
  5  6  1  0  0  0  0
  1  7  1  0  0  0  0
  1  8  1  0  0  0  0
  1  9  1  0  0  0  0
  2 10  1  0  0  0  0
  2 11  1  0  0  0  0
  3 12  1  0  0  0  0
  3 13  1  0  0  0  0
M  END
