 xtb: 6.7.1 (edcfbbe)
          04112512253D

 14 13  0     0  0            999 V2000
   -3.8674   -0.6956   -0.1506 C   0  0  0  0  0  0  0  0  0  0  0  0
   -2.5083   -0.3040    0.4156 C   0  0  0  0  0  0  0  0  0  0  0  0
   -1.9009    0.8712   -0.3457 C   0  0  0  0  0  0  0  0  0  0  0  0
   -0.5771    1.3352    0.2218 C   0  0  0  0  0  0  0  0  0  0  0  0
    1.0151   -0.1340   -0.0155 I   0  0  0  0  0  0  0  0  0  0  0  0
   -4.5648    0.1360   -0.0810 H   0  0  0  0  0  0  0  0  0  0  0  0
   -3.7768   -0.9818   -1.1958 H   0  0  0  0  0  0  0  0  0  0  0  0
   -4.2789   -1.5367    0.4008 H   0  0  0  0  0  0  0  0  0  0  0  0
   -1.8344   -1.1621    0.3576 H   0  0  0  0  0  0  0  0  0  0  0  0
   -2.6155   -0.0360    1.4696 H   0  0  0  0  0  0  0  0  0  0  0  0
   -1.7855    0.6049   -1.3987 H   0  0  0  0  0  0  0  0  0  0  0  0
   -2.5855    1.7230   -0.2928 H   0  0  0  0  0  0  0  0  0  0  0  0
   -0.6416    1.5189    1.2910 H   0  0  0  0  0  0  0  0  0  0  0  0
   -0.2152    2.2257   -0.2846 H   0  0  0  0  0  0  0  0  0  0  0  0
  1  2  1  0  0  0  0
  2  3  1  0  0  0  0
  3  4  1  0  0  0  0
  4  5  1  0  0  0  0
  1  6  1  0  0  0  0
  1  7  1  0  0  0  0
  1  8  1  0  0  0  0
  2  9  1  0  0  0  0
  2 10  1  0  0  0  0
  3 11  1  0  0  0  0
  3 12  1  0  0  0  0
  4 13  1  0  0  0  0
  4 14  1  0  0  0  0
M  END
