 xtb: 6.7.1 (edcfbbe)
          04112513313D

 31 32  0     0  0            999 V2000
   -3.7758    0.5563   -1.7583 C   0  0  0  0  0  0  0  0  0  0  0  0
   -3.2849   -0.4466   -0.7128 C   0  0  0  0  0  0  0  0  0  0  0  0
   -3.5529   -1.4633   -1.0125 H   0  0  0  0  0  0  0  0  0  0  0  0
   -1.7845   -0.3776   -0.5309 C   0  0  0  0  0  0  0  0  0  0  0  0
   -0.9854   -1.4824   -0.7960 C   0  0  0  0  0  0  0  0  0  0  0  0
    0.3859   -1.4184   -0.6397 C   0  0  0  0  0  0  0  0  0  0  0  0
    1.0177   -0.2514   -0.2133 C   0  0  0  0  0  0  0  0  0  0  0  0
    0.1919    0.8365    0.0513 C   0  0  0  0  0  0  0  0  0  0  0  0
   -1.1787    0.7938   -0.0947 C   0  0  0  0  0  0  0  0  0  0  0  0
    0.7362    2.0031    0.5090 F   0  0  0  0  0  0  0  0  0  0  0  0
    2.4789   -0.1951   -0.0496 C   0  0  0  0  0  0  0  0  0  0  0  0
    3.2136    0.8882   -0.5240 C   0  0  0  0  0  0  0  0  0  0  0  0
    4.5879    0.9208   -0.3724 C   0  0  0  0  0  0  0  0  0  0  0  0
    5.2453   -0.1231    0.2566 C   0  0  0  0  0  0  0  0  0  0  0  0
    4.5217   -1.2044    0.7323 C   0  0  0  0  0  0  0  0  0  0  0  0
    3.1485   -1.2432    0.5782 C   0  0  0  0  0  0  0  0  0  0  0  0
   -3.9102   -0.2138    0.6491 C   0  0  0  0  0  0  0  0  0  0  0  0
   -4.2172   -1.1131    1.4035 O   0  0  0  0  0  0  0  0  0  0  0  0
   -4.0613    1.0590    0.9578 O   0  0  0  0  0  0  0  0  0  0  0  0
   -3.5526    1.5733   -1.4522 H   0  0  0  0  0  0  0  0  0  0  0  0
   -3.2838    0.3575   -2.7061 H   0  0  0  0  0  0  0  0  0  0  0  0
   -4.8499    0.4601   -1.8918 H   0  0  0  0  0  0  0  0  0  0  0  0
   -1.4395   -2.4019   -1.1306 H   0  0  0  0  0  0  0  0  0  0  0  0
    0.9919   -2.2816   -0.8657 H   0  0  0  0  0  0  0  0  0  0  0  0
   -1.7576    1.6721    0.1426 H   0  0  0  0  0  0  0  0  0  0  0  0
    2.7090    1.7018   -1.0234 H   0  0  0  0  0  0  0  0  0  0  0  0
    5.1466    1.7649   -0.7475 H   0  0  0  0  0  0  0  0  0  0  0  0
    6.3176   -0.0936    0.3765 H   0  0  0  0  0  0  0  0  0  0  0  0
    5.0289   -2.0192    1.2266 H   0  0  0  0  0  0  0  0  0  0  0  0
    2.5842   -2.0792    0.9637 H   0  0  0  0  0  0  0  0  0  0  0  0
   -4.4481    1.1894    1.8455 H   0  0  0  0  0  0  0  0  0  0  0  0
  1  2  1  0  0  0  0
  2  3  1  0  0  0  0
  2  4  1  0  0  0  0
  4  5  4  0  0  0  0
  5  6  4  0  0  0  0
  6  7  4  0  0  0  0
  7  8  4  0  0  0  0
  4  9  4  0  0  0  0
  8  9  4  0  0  0  0
  8 10  1  0  0  0  0
  7 11  1  0  0  0  0
 11 12  4  0  0  0  0
 12 13  4  0  0  0  0
 13 14  4  0  0  0  0
 14 15  4  0  0  0  0
 11 16  4  0  0  0  0
 15 16  4  0  0  0  0
  2 17  1  0  0  0  0
 17 18  2  0  0  0  0
 17 19  1  0  0  0  0
  1 20  1  0  0  0  0
  1 21  1  0  0  0  0
  1 22  1  0  0  0  0
  5 23  1  0  0  0  0
  6 24  1  0  0  0  0
  9 25  1  0  0  0  0
 12 26  1  0  0  0  0
 13 27  1  0  0  0  0
 14 28  1  0  0  0  0
 15 29  1  0  0  0  0
 16 30  1  0  0  0  0
 19 31  1  0  0  0  0
M  END
