 xtb: 6.7.1 (edcfbbe)
          04112512273D

 13 13  0     0  0            999 V2000
   -2.0604    0.3902    0.7127 C   0  0  0  0  0  0  0  0  0  0  0  0
   -1.4879   -0.5937   -0.3019 C   0  0  0  0  0  0  0  0  0  0  0  0
   -0.2388   -0.0430   -0.9796 C   0  0  0  0  0  0  0  0  0  0  0  0
    0.8992    0.0433   -0.0666 N   0  0  0  0  0  0  0  0  0  0  0  0
    1.7266    0.9071   -0.2891 O   0  0  0  0  0  0  0  0  0  0  0  0
    0.9847   -0.7483    0.8470 O   0  0  0  0  0  0  0  0  0  0  0  0
   -1.3498    0.5729    1.5164 H   0  0  0  0  0  0  0  0  0  0  0  0
   -2.2996    1.3389    0.2383 H   0  0  0  0  0  0  0  0  0  0  0  0
   -2.9680   -0.0122    1.1528 H   0  0  0  0  0  0  0  0  0  0  0  0
   -2.2295   -0.7987   -1.0730 H   0  0  0  0  0  0  0  0  0  0  0  0
   -1.2411   -1.5320    0.1964 H   0  0  0  0  0  0  0  0  0  0  0  0
    0.0758   -0.7078   -1.7898 H   0  0  0  0  0  0  0  0  0  0  0  0
   -0.3938    0.9560   -1.3913 H   0  0  0  0  0  0  0  0  0  0  0  0
  1  2  1  0  0  0  0
  2  3  1  0  0  0  0
  3  4  1  0  0  0  0
  4  5  4  0  0  0  0
  4  6  4  0  0  0  0
  5  6  1  0  0  0  0
  1  7  1  0  0  0  0
  1  8  1  0  0  0  0
  1  9  1  0  0  0  0
  2 10  1  0  0  0  0
  2 11  1  0  0  0  0
  3 12  1  0  0  0  0
  3 13  1  0  0  0  0
M  END
