 xtb: 6.7.1 (edcfbbe)
          04112515563D

 33 35  0     0  0            999 V2000
   -4.4618   -1.1624   -0.4856 C   0  0  0  0  0  0  0  0  0  0  0  0
   -3.6995   -2.3084   -0.3048 C   0  0  0  0  0  0  0  0  0  0  0  0
   -2.3435   -2.2061   -0.0558 C   0  0  0  0  0  0  0  0  0  0  0  0
   -1.7235   -0.9601    0.0126 C   0  0  0  0  0  0  0  0  0  0  0  0
   -2.4936    0.1936   -0.1708 C   0  0  0  0  0  0  0  0  0  0  0  0
   -3.8609    0.0800   -0.4171 C   0  0  0  0  0  0  0  0  0  0  0  0
   -1.8775    1.5239   -0.1036 C   0  0  0  0  0  0  0  0  0  0  0  0
   -2.5454    2.5486   -0.2304 O   0  0  0  0  0  0  0  0  0  0  0  0
   -0.4210    1.5721    0.1135 C   0  0  0  0  0  0  0  0  0  0  0  0
    0.1658    2.8255    0.1183 C   0  0  0  0  0  0  0  0  0  0  0  0
    1.5365    2.9596    0.3226 C   0  0  0  0  0  0  0  0  0  0  0  0
    2.3157    1.8507    0.5102 C   0  0  0  0  0  0  0  0  0  0  0  0
    1.7661    0.5443    0.4974 C   0  0  0  0  0  0  0  0  0  0  0  0
    0.3543    0.4037    0.3050 C   0  0  0  0  0  0  0  0  0  0  0  0
   -0.2741   -0.8993    0.2899 C   0  0  0  0  0  0  0  0  0  0  0  0
    0.3389   -1.9624    0.4965 O   0  0  0  0  0  0  0  0  0  0  0  0
    2.5286   -0.5356    0.6975 N   0  0  0  0  0  0  0  0  0  0  0  0
    3.9645   -0.6407    0.6906 C   0  0  0  0  0  0  0  0  0  0  0  0
    4.4122   -1.7205   -0.3072 C   0  0  0  0  0  0  0  0  0  0  0  0
    4.1090   -1.3946   -1.6438 O   0  0  0  0  0  0  0  0  0  0  0  0
   -5.5201   -1.2395   -0.6789 H   0  0  0  0  0  0  0  0  0  0  0  0
   -4.1635   -3.2808   -0.3574 H   0  0  0  0  0  0  0  0  0  0  0  0
   -1.7341   -3.0857    0.0901 H   0  0  0  0  0  0  0  0  0  0  0  0
   -4.4287    0.9887   -0.5519 H   0  0  0  0  0  0  0  0  0  0  0  0
   -0.4655    3.6877   -0.0317 H   0  0  0  0  0  0  0  0  0  0  0  0
    1.9803    3.9425    0.3397 H   0  0  0  0  0  0  0  0  0  0  0  0
    3.3694    1.9782    0.6929 H   0  0  0  0  0  0  0  0  0  0  0  0
    2.0239   -1.4216    0.6811 H   0  0  0  0  0  0  0  0  0  0  0  0
    4.3149   -0.9277    1.6873 H   0  0  0  0  0  0  0  0  0  0  0  0
    4.4178    0.3113    0.4164 H   0  0  0  0  0  0  0  0  0  0  0  0
    3.8768   -2.6517   -0.1072 H   0  0  0  0  0  0  0  0  0  0  0  0
    5.4871   -1.8996   -0.1847 H   0  0  0  0  0  0  0  0  0  0  0  0
    4.6336   -0.6288   -1.9159 H   0  0  0  0  0  0  0  0  0  0  0  0
  1  2  4  0  0  0  0
  2  3  4  0  0  0  0
  3  4  4  0  0  0  0
  4  5  4  0  0  0  0
  1  6  4  0  0  0  0
  5  6  4  0  0  0  0
  5  7  1  0  0  0  0
  7  8  2  0  0  0  0
  7  9  1  0  0  0  0
  9 10  4  0  0  0  0
 10 11  4  0  0  0  0
 11 12  2  0  0  0  0
 12 13  4  0  0  0  0
  9 14  4  0  0  0  0
 13 14  4  0  0  0  0
  4 15  1  0  0  0  0
 14 15  1  0  0  0  0
 15 16  2  0  0  0  0
 13 17  4  0  0  0  0
 17 18  1  0  0  0  0
 18 19  1  0  0  0  0
 19 20  1  0  0  0  0
  1 21  1  0  0  0  0
  2 22  1  0  0  0  0
  3 23  1  0  0  0  0
  6 24  1  0  0  0  0
 10 25  1  0  0  0  0
 11 26  1  0  0  0  0
 12 27  1  0  0  0  0
 17 28  1  0  0  0  0
 18 29  1  0  0  0  0
 18 30  1  0  0  0  0
 19 31  1  0  0  0  0
 19 32  1  0  0  0  0
 20 33  1  0  0  0  0
M  END
