 xtb: 6.7.1 (edcfbbe)
          04112515563D

 33 35  0     0  0            999 V2000
   -4.6786   -0.9169    0.2322 C   0  0  0  0  0  0  0  0  0  0  0  0
   -4.0209   -2.1327    0.1045 C   0  0  0  0  0  0  0  0  0  0  0  0
   -2.6460   -2.1646   -0.0358 C   0  0  0  0  0  0  0  0  0  0  0  0
   -1.9036   -0.9855   -0.0504 C   0  0  0  0  0  0  0  0  0  0  0  0
   -2.5683    0.2389    0.0793 C   0  0  0  0  0  0  0  0  0  0  0  0
   -3.9549    0.2602    0.2194 C   0  0  0  0  0  0  0  0  0  0  0  0
   -1.8214    1.5029    0.0708 C   0  0  0  0  0  0  0  0  0  0  0  0
   -2.3931    2.5867    0.1796 O   0  0  0  0  0  0  0  0  0  0  0  0
   -0.3589    1.4101   -0.0723 C   0  0  0  0  0  0  0  0  0  0  0  0
    0.3478    2.5999   -0.0539 C   0  0  0  0  0  0  0  0  0  0  0  0
    1.7359    2.5973   -0.1666 C   0  0  0  0  0  0  0  0  0  0  0  0
    2.4116    1.4166   -0.3127 C   0  0  0  0  0  0  0  0  0  0  0  0
    1.7321    0.1755   -0.3573 C   0  0  0  0  0  0  0  0  0  0  0  0
    0.3088    0.1702   -0.2191 C   0  0  0  0  0  0  0  0  0  0  0  0
   -0.4379   -1.0678   -0.2079 C   0  0  0  0  0  0  0  0  0  0  0  0
    0.0901   -2.1899   -0.3178 O   0  0  0  0  0  0  0  0  0  0  0  0
    2.3980   -0.9708   -0.5484 N   0  0  0  0  0  0  0  0  0  0  0  0
    3.8241   -1.1508   -0.6491 C   0  0  0  0  0  0  0  0  0  0  0  0
    4.5410   -1.1450    0.7215 C   0  0  0  0  0  0  0  0  0  0  0  0
    4.9605    0.1357    1.1343 O   0  0  0  0  0  0  0  0  0  0  0  0
   -5.7513   -0.8890    0.3417 H   0  0  0  0  0  0  0  0  0  0  0  0
   -4.5811   -3.0545    0.1143 H   0  0  0  0  0  0  0  0  0  0  0  0
   -2.1161   -3.1002   -0.1373 H   0  0  0  0  0  0  0  0  0  0  0  0
   -4.4394    1.2205    0.3174 H   0  0  0  0  0  0  0  0  0  0  0  0
   -0.2034    3.5208    0.0598 H   0  0  0  0  0  0  0  0  0  0  0  0
    2.2764    3.5301   -0.1336 H   0  0  0  0  0  0  0  0  0  0  0  0
    3.4859    1.4245   -0.3669 H   0  0  0  0  0  0  0  0  0  0  0  0
    1.8246   -1.8100   -0.4878 H   0  0  0  0  0  0  0  0  0  0  0  0
    4.2556   -0.3782   -1.2901 H   0  0  0  0  0  0  0  0  0  0  0  0
    3.9848   -2.1200   -1.1207 H   0  0  0  0  0  0  0  0  0  0  0  0
    5.3935   -1.8307    0.6860 H   0  0  0  0  0  0  0  0  0  0  0  0
    3.8473   -1.4945    1.4900 H   0  0  0  0  0  0  0  0  0  0  0  0
    5.7574    0.3849    0.6461 H   0  0  0  0  0  0  0  0  0  0  0  0
  1  2  4  0  0  0  0
  2  3  4  0  0  0  0
  3  4  4  0  0  0  0
  4  5  4  0  0  0  0
  1  6  4  0  0  0  0
  5  6  4  0  0  0  0
  5  7  1  0  0  0  0
  7  8  2  0  0  0  0
  7  9  1  0  0  0  0
  9 10  4  0  0  0  0
 10 11  4  0  0  0  0
 11 12  2  0  0  0  0
 12 13  4  0  0  0  0
  9 14  4  0  0  0  0
 13 14  4  0  0  0  0
  4 15  1  0  0  0  0
 14 15  1  0  0  0  0
 15 16  2  0  0  0  0
 13 17  4  0  0  0  0
 17 18  1  0  0  0  0
 18 19  1  0  0  0  0
 19 20  1  0  0  0  0
  1 21  1  0  0  0  0
  2 22  1  0  0  0  0
  3 23  1  0  0  0  0
  6 24  1  0  0  0  0
 10 25  1  0  0  0  0
 11 26  1  0  0  0  0
 12 27  1  0  0  0  0
 17 28  1  0  0  0  0
 18 29  1  0  0  0  0
 18 30  1  0  0  0  0
 19 31  1  0  0  0  0
 19 32  1  0  0  0  0
 20 33  1  0  0  0  0
M  END
