 xtb: 6.7.1 (edcfbbe)
          04112515593D

 20 19  0     0  0            999 V2000
   -2.3098   -1.3028   -0.1873 C   0  0  0  0  0  0  0  0  0  0  0  0
   -1.9070   -0.2159    0.8034 C   0  0  0  0  0  0  0  0  0  0  0  0
   -1.5553    1.1144    0.1353 C   0  0  0  0  0  0  0  0  0  0  0  0
   -0.3729    1.0125   -0.8380 C   0  0  0  0  0  0  0  0  0  0  0  0
    0.8506    0.5003   -0.1263 C   0  0  0  0  0  0  0  0  0  0  0  0
    1.4297    1.0745    0.7721 O   0  0  0  0  0  0  0  0  0  0  0  0
    1.2325   -0.6845   -0.5928 O   0  0  0  0  0  0  0  0  0  0  0  0
    2.3798   -1.2935    0.0039 C   0  0  0  0  0  0  0  0  0  0  0  0
   -1.4640   -1.6045   -0.7993 H   0  0  0  0  0  0  0  0  0  0  0  0
   -2.6694   -2.1791    0.3463 H   0  0  0  0  0  0  0  0  0  0  0  0
   -3.1048   -0.9462   -0.8377 H   0  0  0  0  0  0  0  0  0  0  0  0
   -2.7328   -0.0392    1.4959 H   0  0  0  0  0  0  0  0  0  0  0  0
   -1.0536   -0.5582    1.3948 H   0  0  0  0  0  0  0  0  0  0  0  0
   -1.3021    1.8403    0.9107 H   0  0  0  0  0  0  0  0  0  0  0  0
   -2.4217    1.4857   -0.4132 H   0  0  0  0  0  0  0  0  0  0  0  0
   -0.1468    2.0078   -1.2221 H   0  0  0  0  0  0  0  0  0  0  0  0
   -0.6030    0.3459   -1.6663 H   0  0  0  0  0  0  0  0  0  0  0  0
    2.5394   -2.2179   -0.5418 H   0  0  0  0  0  0  0  0  0  0  0  0
    2.1908   -1.4897    1.0600 H   0  0  0  0  0  0  0  0  0  0  0  0
    3.2416   -0.6309   -0.0840 H   0  0  0  0  0  0  0  0  0  0  0  0
  1  2  1  0  0  0  0
  2  3  1  0  0  0  0
  3  4  1  0  0  0  0
  4  5  1  0  0  0  0
  5  6  2  0  0  0  0
  5  7  1  0  0  0  0
  7  8  1  0  0  0  0
  1  9  1  0  0  0  0
  1 10  1  0  0  0  0
  1 11  1  0  0  0  0
  2 12  1  0  0  0  0
  2 13  1  0  0  0  0
  3 14  1  0  0  0  0
  3 15  1  0  0  0  0
  4 16  1  0  0  0  0
  4 17  1  0  0  0  0
  8 18  1  0  0  0  0
  8 19  1  0  0  0  0
  8 20  1  0  0  0  0
M  END
