 xtb: 6.7.1 (edcfbbe)
          04112515533D

 20 19  0     0  0            999 V2000
   -2.5465   -0.6355    1.0638 C   0  0  0  0  0  0  0  0  0  0  0  0
   -2.0815   -0.8017   -0.3778 C   0  0  0  0  0  0  0  0  0  0  0  0
   -1.3839    0.4612   -0.8991 C   0  0  0  0  0  0  0  0  0  0  0  0
   -0.1090    0.7289   -0.1416 C   0  0  0  0  0  0  0  0  0  0  0  0
    0.1009    1.7103    0.5433 O   0  0  0  0  0  0  0  0  0  0  0  0
    0.7763   -0.2419   -0.3111 O   0  0  0  0  0  0  0  0  0  0  0  0
    2.0455   -0.1304    0.3529 C   0  0  0  0  0  0  0  0  0  0  0  0
    3.0253   -1.0642   -0.3317 C   0  0  0  0  0  0  0  0  0  0  0  0
   -3.0281   -1.5440    1.4152 H   0  0  0  0  0  0  0  0  0  0  0  0
   -1.7038   -0.4162    1.7171 H   0  0  0  0  0  0  0  0  0  0  0  0
   -3.2551    0.1856    1.1438 H   0  0  0  0  0  0  0  0  0  0  0  0
   -2.9414   -1.0104   -1.0150 H   0  0  0  0  0  0  0  0  0  0  0  0
   -1.3897   -1.6420   -0.4498 H   0  0  0  0  0  0  0  0  0  0  0  0
   -2.0323    1.3305   -0.7905 H   0  0  0  0  0  0  0  0  0  0  0  0
   -1.1266    0.3248   -1.9499 H   0  0  0  0  0  0  0  0  0  0  0  0
    2.3720    0.9138    0.3052 H   0  0  0  0  0  0  0  0  0  0  0  0
    1.9044   -0.3988    1.4050 H   0  0  0  0  0  0  0  0  0  0  0  0
    3.1451   -0.7821   -1.3737 H   0  0  0  0  0  0  0  0  0  0  0  0
    3.9865   -1.0047    0.1680 H   0  0  0  0  0  0  0  0  0  0  0  0
    2.6587   -2.0853   -0.2851 H   0  0  0  0  0  0  0  0  0  0  0  0
  1  2  1  0  0  0  0
  2  3  1  0  0  0  0
  3  4  1  0  0  0  0
  4  5  2  0  0  0  0
  4  6  1  0  0  0  0
  6  7  1  0  0  0  0
  7  8  1  0  0  0  0
  1  9  1  0  0  0  0
  1 10  1  0  0  0  0
  1 11  1  0  0  0  0
  2 12  1  0  0  0  0
  2 13  1  0  0  0  0
  3 14  1  0  0  0  0
  3 15  1  0  0  0  0
  7 16  1  0  0  0  0
  7 17  1  0  0  0  0
  8 18  1  0  0  0  0
  8 19  1  0  0  0  0
  8 20  1  0  0  0  0
M  END
