 xtb: 6.7.1 (edcfbbe)
          04112515593D

 20 19  0     0  0            999 V2000
   -3.2979   -0.8454   -0.3440 C   0  0  0  0  0  0  0  0  0  0  0  0
   -1.8980   -0.6203    0.2145 C   0  0  0  0  0  0  0  0  0  0  0  0
   -1.5033    0.8543    0.1647 C   0  0  0  0  0  0  0  0  0  0  0  0
   -0.1156    1.0944    0.7669 C   0  0  0  0  0  0  0  0  0  0  0  0
    0.9527    0.4452   -0.0733 C   0  0  0  0  0  0  0  0  0  0  0  0
    1.1040    0.6137   -1.2650 O   0  0  0  0  0  0  0  0  0  0  0  0
    1.7308   -0.3531    0.6505 O   0  0  0  0  0  0  0  0  0  0  0  0
    2.7988   -1.0275   -0.0201 C   0  0  0  0  0  0  0  0  0  0  0  0
   -3.5606   -1.8992   -0.3024 H   0  0  0  0  0  0  0  0  0  0  0  0
   -4.0302   -0.2838    0.2308 H   0  0  0  0  0  0  0  0  0  0  0  0
   -3.3499   -0.5183   -1.3799 H   0  0  0  0  0  0  0  0  0  0  0  0
   -1.8575   -0.9710    1.2479 H   0  0  0  0  0  0  0  0  0  0  0  0
   -1.1772   -1.2049   -0.3633 H   0  0  0  0  0  0  0  0  0  0  0  0
   -2.2357    1.4453    0.7159 H   0  0  0  0  0  0  0  0  0  0  0  0
   -1.4980    1.1944   -0.8729 H   0  0  0  0  0  0  0  0  0  0  0  0
   -0.0517    0.6973    1.7792 H   0  0  0  0  0  0  0  0  0  0  0  0
    0.0893    2.1662    0.7853 H   0  0  0  0  0  0  0  0  0  0  0  0
    2.4174   -1.5507   -0.8979 H   0  0  0  0  0  0  0  0  0  0  0  0
    3.2081   -1.7236    0.7049 H   0  0  0  0  0  0  0  0  0  0  0  0
    3.5521   -0.3055   -0.3369 H   0  0  0  0  0  0  0  0  0  0  0  0
  1  2  1  0  0  0  0
  2  3  1  0  0  0  0
  3  4  1  0  0  0  0
  4  5  1  0  0  0  0
  5  6  2  0  0  0  0
  5  7  1  0  0  0  0
  7  8  1  0  0  0  0
  1  9  1  0  0  0  0
  1 10  1  0  0  0  0
  1 11  1  0  0  0  0
  2 12  1  0  0  0  0
  2 13  1  0  0  0  0
  3 14  1  0  0  0  0
  3 15  1  0  0  0  0
  4 16  1  0  0  0  0
  4 17  1  0  0  0  0
  8 18  1  0  0  0  0
  8 19  1  0  0  0  0
  8 20  1  0  0  0  0
M  END
