 xtb: 6.7.1 (edcfbbe)
          04112515533D

 20 19  0     0  0            999 V2000
   -2.4565   -1.3379   -0.3079 C   0  0  0  0  0  0  0  0  0  0  0  0
   -2.5524    0.1307    0.0873 C   0  0  0  0  0  0  0  0  0  0  0  0
   -1.2977    0.5965    0.8321 C   0  0  0  0  0  0  0  0  0  0  0  0
   -0.0974    0.5938   -0.0791 C   0  0  0  0  0  0  0  0  0  0  0  0
   -0.0499    1.1198   -1.1725 O   0  0  0  0  0  0  0  0  0  0  0  0
    0.9264   -0.0557    0.4566 O   0  0  0  0  0  0  0  0  0  0  0  0
    2.1486   -0.1235   -0.2977 C   0  0  0  0  0  0  0  0  0  0  0  0
    3.1878   -0.8333    0.5480 C   0  0  0  0  0  0  0  0  0  0  0  0
   -1.6168   -1.4947   -0.9826 H   0  0  0  0  0  0  0  0  0  0  0  0
   -2.3133   -1.9621    0.5709 H   0  0  0  0  0  0  0  0  0  0  0  0
   -3.3645   -1.6544   -0.8141 H   0  0  0  0  0  0  0  0  0  0  0  0
   -3.4201    0.2819    0.7298 H   0  0  0  0  0  0  0  0  0  0  0  0
   -2.6742    0.7442   -0.8073 H   0  0  0  0  0  0  0  0  0  0  0  0
   -1.0860   -0.0442    1.6872 H   0  0  0  0  0  0  0  0  0  0  0  0
   -1.4403    1.6222    1.1772 H   0  0  0  0  0  0  0  0  0  0  0  0
    1.9484   -0.6601   -1.2310 H   0  0  0  0  0  0  0  0  0  0  0  0
    2.4553    0.8965   -0.5516 H   0  0  0  0  0  0  0  0  0  0  0  0
    2.8458   -1.8342    0.7937 H   0  0  0  0  0  0  0  0  0  0  0  0
    4.1186   -0.8976   -0.0056 H   0  0  0  0  0  0  0  0  0  0  0  0
    3.3551   -0.2841    1.4698 H   0  0  0  0  0  0  0  0  0  0  0  0
  1  2  1  0  0  0  0
  2  3  1  0  0  0  0
  3  4  1  0  0  0  0
  4  5  2  0  0  0  0
  4  6  1  0  0  0  0
  6  7  1  0  0  0  0
  7  8  1  0  0  0  0
  1  9  1  0  0  0  0
  1 10  1  0  0  0  0
  1 11  1  0  0  0  0
  2 12  1  0  0  0  0
  2 13  1  0  0  0  0
  3 14  1  0  0  0  0
  3 15  1  0  0  0  0
  7 16  1  0  0  0  0
  7 17  1  0  0  0  0
  8 18  1  0  0  0  0
  8 19  1  0  0  0  0
  8 20  1  0  0  0  0
M  END
