 xtb: 6.7.1 (edcfbbe)
          04112515533D

 20 19  0     0  0            999 V2000
   -2.7472    0.4176    1.0713 C   0  0  0  0  0  0  0  0  0  0  0  0
   -2.5213   -0.1055   -0.3422 C   0  0  0  0  0  0  0  0  0  0  0  0
   -1.2157   -0.8963   -0.4472 C   0  0  0  0  0  0  0  0  0  0  0  0
   -0.0129   -0.0017   -0.2867 C   0  0  0  0  0  0  0  0  0  0  0  0
    0.1097    1.0973   -0.7854 O   0  0  0  0  0  0  0  0  0  0  0  0
    0.9143   -0.5704    0.4761 O   0  0  0  0  0  0  0  0  0  0  0  0
    2.1507    0.1305    0.6914 C   0  0  0  0  0  0  0  0  0  0  0  0
    3.1445   -0.1541   -0.4244 C   0  0  0  0  0  0  0  0  0  0  0  0
   -3.6846    0.9642    1.1279 H   0  0  0  0  0  0  0  0  0  0  0  0
   -2.7812   -0.4040    1.7829 H   0  0  0  0  0  0  0  0  0  0  0  0
   -1.9412    1.0903    1.3587 H   0  0  0  0  0  0  0  0  0  0  0  0
   -2.4774    0.7332   -1.0394 H   0  0  0  0  0  0  0  0  0  0  0  0
   -3.3508   -0.7513   -0.6311 H   0  0  0  0  0  0  0  0  0  0  0  0
   -1.1418   -1.3508   -1.4375 H   0  0  0  0  0  0  0  0  0  0  0  0
   -1.1649   -1.6836    0.3042 H   0  0  0  0  0  0  0  0  0  0  0  0
    1.9379    1.2022    0.7533 H   0  0  0  0  0  0  0  0  0  0  0  0
    2.5131   -0.2403    1.6505 H   0  0  0  0  0  0  0  0  0  0  0  0
    3.3045   -1.2247   -0.5186 H   0  0  0  0  0  0  0  0  0  0  0  0
    2.7657    0.2326   -1.3680 H   0  0  0  0  0  0  0  0  0  0  0  0
    4.0881    0.3317   -0.1982 H   0  0  0  0  0  0  0  0  0  0  0  0
  1  2  1  0  0  0  0
  2  3  1  0  0  0  0
  3  4  1  0  0  0  0
  4  5  2  0  0  0  0
  4  6  1  0  0  0  0
  6  7  1  0  0  0  0
  7  8  1  0  0  0  0
  1  9  1  0  0  0  0
  1 10  1  0  0  0  0
  1 11  1  0  0  0  0
  2 12  1  0  0  0  0
  2 13  1  0  0  0  0
  3 14  1  0  0  0  0
  3 15  1  0  0  0  0
  7 16  1  0  0  0  0
  7 17  1  0  0  0  0
  8 18  1  0  0  0  0
  8 19  1  0  0  0  0
  8 20  1  0  0  0  0
M  END
