 xtb: 6.7.1 (edcfbbe)
          04112515533D

 20 19  0     0  0            999 V2000
   -2.5960   -1.2661   -0.0163 C   0  0  0  0  0  0  0  0  0  0  0  0
   -2.5219    0.2560   -0.0080 C   0  0  0  0  0  0  0  0  0  0  0  0
   -1.2488    0.7549    0.6837 C   0  0  0  0  0  0  0  0  0  0  0  0
   -0.0264    0.3796   -0.1144 C   0  0  0  0  0  0  0  0  0  0  0  0
    0.1507    0.6595   -1.2819 O   0  0  0  0  0  0  0  0  0  0  0  0
    0.8388   -0.3136    0.6156 O   0  0  0  0  0  0  0  0  0  0  0  0
    2.0738   -0.7304    0.0097 C   0  0  0  0  0  0  0  0  0  0  0  0
    3.1467    0.3358    0.1688 C   0  0  0  0  0  0  0  0  0  0  0  0
   -3.5163   -1.5980   -0.4893 H   0  0  0  0  0  0  0  0  0  0  0  0
   -1.7570   -1.6847   -0.5692 H   0  0  0  0  0  0  0  0  0  0  0  0
   -2.5671   -1.6557    0.9984 H   0  0  0  0  0  0  0  0  0  0  0  0
   -3.3883    0.6624    0.5143 H   0  0  0  0  0  0  0  0  0  0  0  0
   -2.5309    0.6304   -1.0334 H   0  0  0  0  0  0  0  0  0  0  0  0
   -1.1555    0.3334    1.6838 H   0  0  0  0  0  0  0  0  0  0  0  0
   -1.2751    1.8439    0.7488 H   0  0  0  0  0  0  0  0  0  0  0  0
    2.3439   -1.6470    0.5351 H   0  0  0  0  0  0  0  0  0  0  0  0
    1.8903   -0.9382   -1.0490 H   0  0  0  0  0  0  0  0  0  0  0  0
    3.2801    0.5778    1.2197 H   0  0  0  0  0  0  0  0  0  0  0  0
    4.0832   -0.0329   -0.2367 H   0  0  0  0  0  0  0  0  0  0  0  0
    2.8594    1.2368   -0.3688 H   0  0  0  0  0  0  0  0  0  0  0  0
  1  2  1  0  0  0  0
  2  3  1  0  0  0  0
  3  4  1  0  0  0  0
  4  5  2  0  0  0  0
  4  6  1  0  0  0  0
  6  7  1  0  0  0  0
  7  8  1  0  0  0  0
  1  9  1  0  0  0  0
  1 10  1  0  0  0  0
  1 11  1  0  0  0  0
  2 12  1  0  0  0  0
  2 13  1  0  0  0  0
  3 14  1  0  0  0  0
  3 15  1  0  0  0  0
  7 16  1  0  0  0  0
  7 17  1  0  0  0  0
  8 18  1  0  0  0  0
  8 19  1  0  0  0  0
  8 20  1  0  0  0  0
M  END
