 xtb: 6.7.1 (edcfbbe)
          04112512243D

 22 21  0     0  0            999 V2000
    2.2917    1.1440   -0.0869 C   0  0  0  0  0  0  0  0  0  0  0  0
    1.2563    0.0922    0.3220 C   0  0  0  0  0  0  0  0  0  0  0  0
    1.7724   -1.3072   -0.0439 C   0  0  0  0  0  0  0  0  0  0  0  0
   -0.0105    0.4569   -0.2836 N   0  0  0  0  0  0  0  0  0  0  0  0
   -1.2547    0.0143    0.3184 C   0  0  0  0  0  0  0  0  0  0  0  0
   -1.7200   -1.3833   -0.1143 C   0  0  0  0  0  0  0  0  0  0  0  0
   -2.3363    1.0429   -0.0268 C   0  0  0  0  0  0  0  0  0  0  0  0
    2.4703    1.0957   -1.1582 H   0  0  0  0  0  0  0  0  0  0  0  0
    1.9249    2.1363    0.1576 H   0  0  0  0  0  0  0  0  0  0  0  0
    3.2309    0.9747    0.4323 H   0  0  0  0  0  0  0  0  0  0  0  0
    1.1165    0.1451    1.4087 H   0  0  0  0  0  0  0  0  0  0  0  0
    2.7649   -1.4578    0.3730 H   0  0  0  0  0  0  0  0  0  0  0  0
    1.8324   -1.4124   -1.1256 H   0  0  0  0  0  0  0  0  0  0  0  0
    1.1200   -2.0842    0.3455 H   0  0  0  0  0  0  0  0  0  0  0  0
   -0.0029    0.2608   -1.2780 H   0  0  0  0  0  0  0  0  0  0  0  0
   -1.1042    0.0185    1.4049 H   0  0  0  0  0  0  0  0  0  0  0  0
   -1.8136   -1.4265   -1.1979 H   0  0  0  0  0  0  0  0  0  0  0  0
   -1.0206   -2.1516    0.2040 H   0  0  0  0  0  0  0  0  0  0  0  0
   -2.6898   -1.6039    0.3244 H   0  0  0  0  0  0  0  0  0  0  0  0
   -2.0069    2.0357    0.2644 H   0  0  0  0  0  0  0  0  0  0  0  0
   -3.2625    0.8098    0.4910 H   0  0  0  0  0  0  0  0  0  0  0  0
   -2.5237    1.0417   -1.0977 H   0  0  0  0  0  0  0  0  0  0  0  0
  1  2  1  0  0  0  0
  2  3  1  0  0  0  0
  2  4  1  0  0  0  0
  4  5  1  0  0  0  0
  5  6  1  0  0  0  0
  5  7  1  0  0  0  0
  1  8  1  0  0  0  0
  1  9  1  0  0  0  0
  1 10  1  0  0  0  0
  2 11  1  0  0  0  0
  3 12  1  0  0  0  0
  3 13  1  0  0  0  0
  3 14  1  0  0  0  0
  4 15  1  0  0  0  0
  5 16  1  0  0  0  0
  6 17  1  0  0  0  0
  6 18  1  0  0  0  0
  6 19  1  0  0  0  0
  7 20  1  0  0  0  0
  7 21  1  0  0  0  0
  7 22  1  0  0  0  0
M  END
