 xtb: 6.7.1 (edcfbbe)
          04112515543D

 17 16  0     0  0            999 V2000
    3.3036    0.3294   -0.1801 C   0  0  0  0  0  0  0  0  0  0  0  0
    2.2835   -0.6647    0.3644 C   0  0  0  0  0  0  0  0  0  0  0  0
    0.9059   -0.5300   -0.2847 C   0  0  0  0  0  0  0  0  0  0  0  0
    0.2083    0.7850    0.0602 C   0  0  0  0  0  0  0  0  0  0  0  0
   -1.1918    0.8699   -0.5192 C   0  0  0  0  0  0  0  0  0  0  0  0
   -2.2902   -0.3403    0.2392 Cl  0  0  0  0  0  0  0  0  0  0  0  0
    3.0280    1.3502    0.0699 H   0  0  0  0  0  0  0  0  0  0  0  0
    3.3761    0.2444   -1.2619 H   0  0  0  0  0  0  0  0  0  0  0  0
    4.2842    0.1306    0.2454 H   0  0  0  0  0  0  0  0  0  0  0  0
    2.6498   -1.6783    0.1874 H   0  0  0  0  0  0  0  0  0  0  0  0
    2.1877   -0.5335    1.4443 H   0  0  0  0  0  0  0  0  0  0  0  0
    0.2773   -1.3573    0.0524 H   0  0  0  0  0  0  0  0  0  0  0  0
    1.0085   -0.6110   -1.3690 H   0  0  0  0  0  0  0  0  0  0  0  0
    0.7743    1.6231   -0.3486 H   0  0  0  0  0  0  0  0  0  0  0  0
    0.1617    0.9003    1.1446 H   0  0  0  0  0  0  0  0  0  0  0  0
   -1.6461    1.8403   -0.3288 H   0  0  0  0  0  0  0  0  0  0  0  0
   -1.1978    0.6522   -1.5858 H   0  0  0  0  0  0  0  0  0  0  0  0
  1  2  1  0  0  0  0
  2  3  1  0  0  0  0
  3  4  1  0  0  0  0
  4  5  1  0  0  0  0
  5  6  1  0  0  0  0
  1  7  1  0  0  0  0
  1  8  1  0  0  0  0
  1  9  1  0  0  0  0
  2 10  1  0  0  0  0
  2 11  1  0  0  0  0
  3 12  1  0  0  0  0
  3 13  1  0  0  0  0
  4 14  1  0  0  0  0
  4 15  1  0  0  0  0
  5 16  1  0  0  0  0
  5 17  1  0  0  0  0
M  END
