 xtb: 6.7.1 (edcfbbe)
          04112515553D

 17 16  0     0  0            999 V2000
    0.8725   -1.8208    0.7643 C   0  0  0  0  0  0  0  0  0  0  0  0
    0.7018   -1.2418   -0.5374 O   0  0  0  0  0  0  0  0  0  0  0  0
    0.1791    0.0336   -0.6327 C   0  0  0  0  0  0  0  0  0  0  0  0
    0.7409    0.8564    0.3359 O   0  0  0  0  0  0  0  0  0  0  0  0
    0.6322    2.2462    0.0491 C   0  0  0  0  0  0  0  0  0  0  0  0
   -1.2149    0.1019   -0.6375 O   0  0  0  0  0  0  0  0  0  0  0  0
   -1.8915   -0.2002    0.5870 C   0  0  0  0  0  0  0  0  0  0  0  0
    1.6233   -2.5941    0.6223 H   0  0  0  0  0  0  0  0  0  0  0  0
   -0.0577   -2.2666    1.1186 H   0  0  0  0  0  0  0  0  0  0  0  0
    1.2316   -1.0737    1.4702 H   0  0  0  0  0  0  0  0  0  0  0  0
    0.4467    0.3710   -1.6503 H   0  0  0  0  0  0  0  0  0  0  0  0
   -0.4136    2.5310   -0.0837 H   0  0  0  0  0  0  0  0  0  0  0  0
    1.1958    2.4883   -0.8553 H   0  0  0  0  0  0  0  0  0  0  0  0
    1.0588    2.7513    0.9108 H   0  0  0  0  0  0  0  0  0  0  0  0
   -1.3102    0.1474    1.4421 H   0  0  0  0  0  0  0  0  0  0  0  0
   -2.0770   -1.2730    0.6624 H   0  0  0  0  0  0  0  0  0  0  0  0
   -2.8375    0.3341    0.5341 H   0  0  0  0  0  0  0  0  0  0  0  0
  1  2  1  0  0  0  0
  2  3  1  0  0  0  0
  3  4  1  0  0  0  0
  4  5  1  0  0  0  0
  3  6  1  0  0  0  0
  6  7  1  0  0  0  0
  1  8  1  0  0  0  0
  1  9  1  0  0  0  0
  1 10  1  0  0  0  0
  3 11  1  0  0  0  0
  5 12  1  0  0  0  0
  5 13  1  0  0  0  0
  5 14  1  0  0  0  0
  7 15  1  0  0  0  0
  7 16  1  0  0  0  0
  7 17  1  0  0  0  0
M  END
