 xtb: 6.7.1 (edcfbbe)
          04112512293D

 21 20  0     0  0            999 V2000
    1.7026   -1.2251   -0.7524 C   0  0  0  0  0  0  0  0  0  0  0  0
    1.5361   -0.0172    0.1539 C   0  0  0  0  0  0  0  0  0  0  0  0
    1.7248    1.2982   -0.5829 C   0  0  0  0  0  0  0  0  0  0  0  0
   -0.0055   -0.0713    1.1735 S   0  0  0  0  0  0  0  0  0  0  0  0
   -1.5376   -0.0014    0.1407 C   0  0  0  0  0  0  0  0  0  0  0  0
   -1.6974    1.3084   -0.6124 C   0  0  0  0  0  0  0  0  0  0  0  0
   -1.7173   -1.2169   -0.7532 C   0  0  0  0  0  0  0  0  0  0  0  0
    1.0784   -1.1392   -1.6377 H   0  0  0  0  0  0  0  0  0  0  0  0
    2.7401   -1.2930   -1.0737 H   0  0  0  0  0  0  0  0  0  0  0  0
    1.4426   -2.1390   -0.2241 H   0  0  0  0  0  0  0  0  0  0  0  0
    2.2687   -0.0781    0.9663 H   0  0  0  0  0  0  0  0  0  0  0  0
    2.7640    1.3906   -0.8925 H   0  0  0  0  0  0  0  0  0  0  0  0
    1.4793    2.1373    0.0632 H   0  0  0  0  0  0  0  0  0  0  0  0
    1.1010    1.3425   -1.4714 H   0  0  0  0  0  0  0  0  0  0  0  0
   -2.2778   -0.0406    0.9475 H   0  0  0  0  0  0  0  0  0  0  0  0
   -1.4482    2.1510    0.0278 H   0  0  0  0  0  0  0  0  0  0  0  0
   -1.0614    1.3337   -1.4929 H   0  0  0  0  0  0  0  0  0  0  0  0
   -2.7310    1.4123   -0.9368 H   0  0  0  0  0  0  0  0  0  0  0  0
   -1.4765   -2.1286   -0.2122 H   0  0  0  0  0  0  0  0  0  0  0  0
   -1.0849   -1.1519   -1.6343 H   0  0  0  0  0  0  0  0  0  0  0  0
   -2.7533   -1.2713   -1.0817 H   0  0  0  0  0  0  0  0  0  0  0  0
  1  2  1  0  0  0  0
  2  3  1  0  0  0  0
  2  4  1  0  0  0  0
  4  5  1  0  0  0  0
  5  6  1  0  0  0  0
  5  7  1  0  0  0  0
  1  8  1  0  0  0  0
  1  9  1  0  0  0  0
  1 10  1  0  0  0  0
  2 11  1  0  0  0  0
  3 12  1  0  0  0  0
  3 13  1  0  0  0  0
  3 14  1  0  0  0  0
  5 15  1  0  0  0  0
  6 16  1  0  0  0  0
  6 17  1  0  0  0  0
  6 18  1  0  0  0  0
  7 19  1  0  0  0  0
  7 20  1  0  0  0  0
  7 21  1  0  0  0  0
M  END
