 xtb: 6.7.1 (edcfbbe)
          04112515533D

 20 19  0     0  0            999 V2000
   -3.5363   -0.6502    0.4554 C   0  0  0  0  0  0  0  0  0  0  0  0
   -2.1789    0.0346    0.5491 C   0  0  0  0  0  0  0  0  0  0  0  0
   -1.2177   -0.4893   -0.5286 C   0  0  0  0  0  0  0  0  0  0  0  0
    0.0971    0.2328   -0.4097 C   0  0  0  0  0  0  0  0  0  0  0  0
    0.3793    1.2586   -0.9941 O   0  0  0  0  0  0  0  0  0  0  0  0
    0.9013   -0.3645    0.4600 O   0  0  0  0  0  0  0  0  0  0  0  0
    2.1860    0.2236    0.7250 C   0  0  0  0  0  0  0  0  0  0  0  0
    3.2282   -0.2677   -0.2679 C   0  0  0  0  0  0  0  0  0  0  0  0
   -3.4310   -1.7234    0.5905 H   0  0  0  0  0  0  0  0  0  0  0  0
   -4.2017   -0.2680    1.2247 H   0  0  0  0  0  0  0  0  0  0  0  0
   -3.9895   -0.4665   -0.5154 H   0  0  0  0  0  0  0  0  0  0  0  0
   -1.7410   -0.1457    1.5327 H   0  0  0  0  0  0  0  0  0  0  0  0
   -2.2980    1.1129    0.4240 H   0  0  0  0  0  0  0  0  0  0  0  0
   -1.6342   -0.2985   -1.5172 H   0  0  0  0  0  0  0  0  0  0  0  0
   -1.0536   -1.5565   -0.3866 H   0  0  0  0  0  0  0  0  0  0  0  0
    2.0885    1.3123    0.6740 H   0  0  0  0  0  0  0  0  0  0  0  0
    2.4275   -0.0892    1.7413 H   0  0  0  0  0  0  0  0  0  0  0  0
    2.9695    0.0607   -1.2721 H   0  0  0  0  0  0  0  0  0  0  0  0
    4.1981    0.1402   -0.0027 H   0  0  0  0  0  0  0  0  0  0  0  0
    3.2778   -1.3531   -0.2519 H   0  0  0  0  0  0  0  0  0  0  0  0
  1  2  1  0  0  0  0
  2  3  1  0  0  0  0
  3  4  1  0  0  0  0
  4  5  2  0  0  0  0
  4  6  1  0  0  0  0
  6  7  1  0  0  0  0
  7  8  1  0  0  0  0
  1  9  1  0  0  0  0
  1 10  1  0  0  0  0
  1 11  1  0  0  0  0
  2 12  1  0  0  0  0
  2 13  1  0  0  0  0
  3 14  1  0  0  0  0
  3 15  1  0  0  0  0
  7 16  1  0  0  0  0
  7 17  1  0  0  0  0
  8 18  1  0  0  0  0
  8 19  1  0  0  0  0
  8 20  1  0  0  0  0
M  END
