 xtb: 6.7.1 (edcfbbe)
          04112515533D

 20 19  0     0  0            999 V2000
   -2.3248   -1.2502    0.7025 C   0  0  0  0  0  0  0  0  0  0  0  0
   -2.5248    0.0456   -0.0739 C   0  0  0  0  0  0  0  0  0  0  0  0
   -1.3249    0.3539   -0.9760 C   0  0  0  0  0  0  0  0  0  0  0  0
   -0.1007    0.6553   -0.1506 C   0  0  0  0  0  0  0  0  0  0  0  0
   -0.0348    1.5091    0.7107 O   0  0  0  0  0  0  0  0  0  0  0  0
    0.9158   -0.1323   -0.4708 O   0  0  0  0  0  0  0  0  0  0  0  0
    2.1554    0.0391    0.2371 C   0  0  0  0  0  0  0  0  0  0  0  0
    3.0477   -1.1469   -0.0741 C   0  0  0  0  0  0  0  0  0  0  0  0
   -3.1974   -1.4639    1.3140 H   0  0  0  0  0  0  0  0  0  0  0  0
   -2.1655   -2.0830    0.0218 H   0  0  0  0  0  0  0  0  0  0  0  0
   -1.4595   -1.1707    1.3579 H   0  0  0  0  0  0  0  0  0  0  0  0
   -2.6589    0.8752    0.6230 H   0  0  0  0  0  0  0  0  0  0  0  0
   -3.4189   -0.0318   -0.6929 H   0  0  0  0  0  0  0  0  0  0  0  0
   -1.5414    1.2392   -1.5761 H   0  0  0  0  0  0  0  0  0  0  0  0
   -1.1034   -0.4857   -1.6336 H   0  0  0  0  0  0  0  0  0  0  0  0
    2.6078    0.9813   -0.0889 H   0  0  0  0  0  0  0  0  0  0  0  0
    1.9359    0.1179    1.3071 H   0  0  0  0  0  0  0  0  0  0  0  0
    2.5735   -2.0674    0.2536 H   0  0  0  0  0  0  0  0  0  0  0  0
    3.2252   -1.2060   -1.1437 H   0  0  0  0  0  0  0  0  0  0  0  0
    3.9950   -1.0287    0.4414 H   0  0  0  0  0  0  0  0  0  0  0  0
  1  2  1  0  0  0  0
  2  3  1  0  0  0  0
  3  4  1  0  0  0  0
  4  5  2  0  0  0  0
  4  6  1  0  0  0  0
  6  7  1  0  0  0  0
  7  8  1  0  0  0  0
  1  9  1  0  0  0  0
  1 10  1  0  0  0  0
  1 11  1  0  0  0  0
  2 12  1  0  0  0  0
  2 13  1  0  0  0  0
  3 14  1  0  0  0  0
  3 15  1  0  0  0  0
  7 16  1  0  0  0  0
  7 17  1  0  0  0  0
  8 18  1  0  0  0  0
  8 19  1  0  0  0  0
  8 20  1  0  0  0  0
M  END
