 xtb: 6.7.1 (edcfbbe)
          04112515593D

 20 19  0     0  0            999 V2000
   -3.9255    0.2010   -0.2227 C   0  0  0  0  0  0  0  0  0  0  0  0
   -2.6962   -0.3687    0.4750 C   0  0  0  0  0  0  0  0  0  0  0  0
   -1.4047    0.1394   -0.1606 C   0  0  0  0  0  0  0  0  0  0  0  0
   -0.1692   -0.4216    0.5393 C   0  0  0  0  0  0  0  0  0  0  0  0
    1.1082   -0.0114   -0.1450 C   0  0  0  0  0  0  0  0  0  0  0  0
    1.1988    0.3670   -1.2935 O   0  0  0  0  0  0  0  0  0  0  0  0
    2.1477   -0.1347    0.6749 O   0  0  0  0  0  0  0  0  0  0  0  0
    3.4580    0.1767    0.1892 C   0  0  0  0  0  0  0  0  0  0  0  0
   -3.9289    1.2867   -0.1618 H   0  0  0  0  0  0  0  0  0  0  0  0
   -3.9313   -0.0814   -1.2729 H   0  0  0  0  0  0  0  0  0  0  0  0
   -4.8350   -0.1731    0.2401 H   0  0  0  0  0  0  0  0  0  0  0  0
   -2.7143   -0.0868    1.5296 H   0  0  0  0  0  0  0  0  0  0  0  0
   -2.7212   -1.4588    0.4202 H   0  0  0  0  0  0  0  0  0  0  0  0
   -1.3784    1.2302   -0.1174 H   0  0  0  0  0  0  0  0  0  0  0  0
   -1.3720   -0.1434   -1.2147 H   0  0  0  0  0  0  0  0  0  0  0  0
   -0.1997   -1.5142    0.5276 H   0  0  0  0  0  0  0  0  0  0  0  0
   -0.1196   -0.1051    1.5814 H   0  0  0  0  0  0  0  0  0  0  0  0
    3.4310    0.3030   -0.8937 H   0  0  0  0  0  0  0  0  0  0  0  0
    4.1070   -0.6502    0.4677 H   0  0  0  0  0  0  0  0  0  0  0  0
    3.7899    1.0977    0.6663 H   0  0  0  0  0  0  0  0  0  0  0  0
  1  2  1  0  0  0  0
  2  3  1  0  0  0  0
  3  4  1  0  0  0  0
  4  5  1  0  0  0  0
  5  6  2  0  0  0  0
  5  7  1  0  0  0  0
  7  8  1  0  0  0  0
  1  9  1  0  0  0  0
  1 10  1  0  0  0  0
  1 11  1  0  0  0  0
  2 12  1  0  0  0  0
  2 13  1  0  0  0  0
  3 14  1  0  0  0  0
  3 15  1  0  0  0  0
  4 16  1  0  0  0  0
  4 17  1  0  0  0  0
  8 18  1  0  0  0  0
  8 19  1  0  0  0  0
  8 20  1  0  0  0  0
M  END
