 xtb: 6.7.1 (edcfbbe)
          04112515593D

 20 19  0     0  0            999 V2000
   -2.7399   -0.2864   -0.8040 C   0  0  0  0  0  0  0  0  0  0  0  0
   -1.8826   -0.7979    0.3485 C   0  0  0  0  0  0  0  0  0  0  0  0
   -1.2542    0.3239    1.1770 C   0  0  0  0  0  0  0  0  0  0  0  0
   -0.3158    1.2281    0.3664 C   0  0  0  0  0  0  0  0  0  0  0  0
    0.7828    0.4308   -0.2863 C   0  0  0  0  0  0  0  0  0  0  0  0
    0.9404    0.3209   -1.4851 O   0  0  0  0  0  0  0  0  0  0  0  0
    1.5699   -0.1408    0.6165 O   0  0  0  0  0  0  0  0  0  0  0  0
    2.6634   -0.9501    0.1760 C   0  0  0  0  0  0  0  0  0  0  0  0
   -3.2708   -1.1121   -1.2714 H   0  0  0  0  0  0  0  0  0  0  0  0
   -3.4708    0.4343   -0.4454 H   0  0  0  0  0  0  0  0  0  0  0  0
   -2.1225    0.1867   -1.5637 H   0  0  0  0  0  0  0  0  0  0  0  0
   -2.5006   -1.4066    1.0118 H   0  0  0  0  0  0  0  0  0  0  0  0
   -1.0946   -1.4413   -0.0515 H   0  0  0  0  0  0  0  0  0  0  0  0
   -0.6884   -0.1174    1.9989 H   0  0  0  0  0  0  0  0  0  0  0  0
   -2.0451    0.9449    1.5999 H   0  0  0  0  0  0  0  0  0  0  0  0
    0.1457    1.9517    1.0388 H   0  0  0  0  0  0  0  0  0  0  0  0
   -0.8614    1.7576   -0.4129 H   0  0  0  0  0  0  0  0  0  0  0  0
    3.5554   -0.5926    0.6857 H   0  0  0  0  0  0  0  0  0  0  0  0
    2.7758   -0.8653   -0.9055 H   0  0  0  0  0  0  0  0  0  0  0  0
    2.4571   -1.9828    0.4541 H   0  0  0  0  0  0  0  0  0  0  0  0
  1  2  1  0  0  0  0
  2  3  1  0  0  0  0
  3  4  1  0  0  0  0
  4  5  1  0  0  0  0
  5  6  2  0  0  0  0
  5  7  1  0  0  0  0
  7  8  1  0  0  0  0
  1  9  1  0  0  0  0
  1 10  1  0  0  0  0
  1 11  1  0  0  0  0
  2 12  1  0  0  0  0
  2 13  1  0  0  0  0
  3 14  1  0  0  0  0
  3 15  1  0  0  0  0
  4 16  1  0  0  0  0
  4 17  1  0  0  0  0
  8 18  1  0  0  0  0
  8 19  1  0  0  0  0
  8 20  1  0  0  0  0
M  END
