 xtb: 6.7.1 (edcfbbe)
          04112515533D

 20 19  0     0  0            999 V2000
   -3.6425   -0.6253    0.2423 C   0  0  0  0  0  0  0  0  0  0  0  0
   -2.3369   -0.2021   -0.4182 C   0  0  0  0  0  0  0  0  0  0  0  0
   -1.1852   -0.1846    0.5830 C   0  0  0  0  0  0  0  0  0  0  0  0
    0.1090    0.2661   -0.0413 C   0  0  0  0  0  0  0  0  0  0  0  0
    0.2313    0.6993   -1.1672 O   0  0  0  0  0  0  0  0  0  0  0  0
    1.1208    0.1446    0.8138 O   0  0  0  0  0  0  0  0  0  0  0  0
    2.4357    0.5269    0.3753 C   0  0  0  0  0  0  0  0  0  0  0  0
    3.1271   -0.6160   -0.3522 C   0  0  0  0  0  0  0  0  0  0  0  0
   -3.9082    0.0653    1.0387 H   0  0  0  0  0  0  0  0  0  0  0  0
   -4.4474   -0.6354   -0.4872 H   0  0  0  0  0  0  0  0  0  0  0  0
   -3.5493   -1.6219    0.6664 H   0  0  0  0  0  0  0  0  0  0  0  0
   -2.4425    0.7926   -0.8548 H   0  0  0  0  0  0  0  0  0  0  0  0
   -2.0915   -0.8868   -1.2322 H   0  0  0  0  0  0  0  0  0  0  0  0
   -1.0249   -1.1737    1.0151 H   0  0  0  0  0  0  0  0  0  0  0  0
   -1.4055    0.4970    1.4076 H   0  0  0  0  0  0  0  0  0  0  0  0
    2.3455    1.4001   -0.2780 H   0  0  0  0  0  0  0  0  0  0  0  0
    2.9634    0.7914    1.2920 H   0  0  0  0  0  0  0  0  0  0  0  0
    4.1388   -0.3194   -0.6087 H   0  0  0  0  0  0  0  0  0  0  0  0
    3.1606   -1.4976    0.2821 H   0  0  0  0  0  0  0  0  0  0  0  0
    2.5873   -0.8561   -1.2656 H   0  0  0  0  0  0  0  0  0  0  0  0
  1  2  1  0  0  0  0
  2  3  1  0  0  0  0
  3  4  1  0  0  0  0
  4  5  2  0  0  0  0
  4  6  1  0  0  0  0
  6  7  1  0  0  0  0
  7  8  1  0  0  0  0
  1  9  1  0  0  0  0
  1 10  1  0  0  0  0
  1 11  1  0  0  0  0
  2 12  1  0  0  0  0
  2 13  1  0  0  0  0
  3 14  1  0  0  0  0
  3 15  1  0  0  0  0
  7 16  1  0  0  0  0
  7 17  1  0  0  0  0
  8 18  1  0  0  0  0
  8 19  1  0  0  0  0
  8 20  1  0  0  0  0
M  END
