 xtb: 6.7.1 (edcfbbe)
          04112515593D

 20 19  0     0  0            999 V2000
   -2.3328   -1.2982   -0.1849 C   0  0  0  0  0  0  0  0  0  0  0  0
   -1.9104   -0.2176    0.8045 C   0  0  0  0  0  0  0  0  0  0  0  0
   -1.5517    1.1106    0.1360 C   0  0  0  0  0  0  0  0  0  0  0  0
   -0.3738    1.0013   -0.8417 C   0  0  0  0  0  0  0  0  0  0  0  0
    0.8539    0.4992   -0.1301 C   0  0  0  0  0  0  0  0  0  0  0  0
    1.4338    1.0835    0.7614 O   0  0  0  0  0  0  0  0  0  0  0  0
    1.2382   -0.6885   -0.5867 O   0  0  0  0  0  0  0  0  0  0  0  0
    2.3903   -1.2871    0.0112 C   0  0  0  0  0  0  0  0  0  0  0  0
   -2.6952   -2.1726    0.3500 H   0  0  0  0  0  0  0  0  0  0  0  0
   -3.1308   -0.9327   -0.8267 H   0  0  0  0  0  0  0  0  0  0  0  0
   -1.4959   -1.6063   -0.8060 H   0  0  0  0  0  0  0  0  0  0  0  0
   -2.7285   -0.0343    1.5043 H   0  0  0  0  0  0  0  0  0  0  0  0
   -1.0555   -0.5699    1.3877 H   0  0  0  0  0  0  0  0  0  0  0  0
   -1.2899    1.8343    0.9106 H   0  0  0  0  0  0  0  0  0  0  0  0
   -2.4177    1.4886   -0.4086 H   0  0  0  0  0  0  0  0  0  0  0  0
   -0.1513    1.9934   -1.2364 H   0  0  0  0  0  0  0  0  0  0  0  0
   -0.6061    0.3263   -1.6625 H   0  0  0  0  0  0  0  0  0  0  0  0
    3.2609   -0.6469   -0.1357 H   0  0  0  0  0  0  0  0  0  0  0  0
    2.5186   -2.2419   -0.4885 H   0  0  0  0  0  0  0  0  0  0  0  0
    2.2278   -1.4227    1.0812 H   0  0  0  0  0  0  0  0  0  0  0  0
  1  2  1  0  0  0  0
  2  3  1  0  0  0  0
  3  4  1  0  0  0  0
  4  5  1  0  0  0  0
  5  6  2  0  0  0  0
  5  7  1  0  0  0  0
  7  8  1  0  0  0  0
  1  9  1  0  0  0  0
  1 10  1  0  0  0  0
  1 11  1  0  0  0  0
  2 12  1  0  0  0  0
  2 13  1  0  0  0  0
  3 14  1  0  0  0  0
  3 15  1  0  0  0  0
  4 16  1  0  0  0  0
  4 17  1  0  0  0  0
  8 18  1  0  0  0  0
  8 19  1  0  0  0  0
  8 20  1  0  0  0  0
M  END
