 xtb: 6.7.1 (edcfbbe)
          04112513313D

 31 32  0     0  0            999 V2000
   -3.7319    0.9506   -1.6168 C   0  0  0  0  0  0  0  0  0  0  0  0
   -3.2795   -0.2648   -0.8024 C   0  0  0  0  0  0  0  0  0  0  0  0
   -3.5546   -1.1791   -1.3346 H   0  0  0  0  0  0  0  0  0  0  0  0
   -1.7792   -0.2455   -0.6016 C   0  0  0  0  0  0  0  0  0  0  0  0
   -0.9626   -1.1819   -1.2234 C   0  0  0  0  0  0  0  0  0  0  0  0
    0.4088   -1.1416   -1.0603 C   0  0  0  0  0  0  0  0  0  0  0  0
    1.0206   -0.1754   -0.2636 C   0  0  0  0  0  0  0  0  0  0  0  0
    0.1775    0.7487    0.3468 C   0  0  0  0  0  0  0  0  0  0  0  0
   -1.1923    0.7333    0.1900 C   0  0  0  0  0  0  0  0  0  0  0  0
    0.7094    1.7418    1.1186 F   0  0  0  0  0  0  0  0  0  0  0  0
    2.4819   -0.1476   -0.0945 C   0  0  0  0  0  0  0  0  0  0  0  0
    3.0569    0.0397    1.1596 C   0  0  0  0  0  0  0  0  0  0  0  0
    4.4325    0.0525    1.3029 C   0  0  0  0  0  0  0  0  0  0  0  0
    5.2507   -0.1185    0.1989 C   0  0  0  0  0  0  0  0  0  0  0  0
    4.6867   -0.3055   -1.0526 C   0  0  0  0  0  0  0  0  0  0  0  0
    3.3124   -0.3231   -1.1995 C   0  0  0  0  0  0  0  0  0  0  0  0
   -3.9254   -0.2535    0.5756 C   0  0  0  0  0  0  0  0  0  0  0  0
   -4.1650    0.7594    1.1894 O   0  0  0  0  0  0  0  0  0  0  0  0
   -4.1890   -1.4370    1.1197 O   0  0  0  0  0  0  0  0  0  0  0  0
   -4.7932    0.8785   -1.8392 H   0  0  0  0  0  0  0  0  0  0  0  0
   -3.5635    1.8625   -1.0506 H   0  0  0  0  0  0  0  0  0  0  0  0
   -3.1740    1.0021   -2.5472 H   0  0  0  0  0  0  0  0  0  0  0  0
   -1.3975   -1.9457   -1.8489 H   0  0  0  0  0  0  0  0  0  0  0  0
    1.0279   -1.8818   -1.5418 H   0  0  0  0  0  0  0  0  0  0  0  0
   -1.7908    1.4768    0.6934 H   0  0  0  0  0  0  0  0  0  0  0  0
    2.4259    0.1649    2.0271 H   0  0  0  0  0  0  0  0  0  0  0  0
    4.8656    0.1966    2.2813 H   0  0  0  0  0  0  0  0  0  0  0  0
    6.3238   -0.1047    0.3136 H   0  0  0  0  0  0  0  0  0  0  0  0
    5.3203   -0.4358   -1.9168 H   0  0  0  0  0  0  0  0  0  0  0  0
    2.8753   -0.4519   -2.1781 H   0  0  0  0  0  0  0  0  0  0  0  0
   -3.9825   -2.2019    0.5520 H   0  0  0  0  0  0  0  0  0  0  0  0
  1  2  1  0  0  0  0
  2  3  1  0  0  0  0
  2  4  1  0  0  0  0
  4  5  4  0  0  0  0
  5  6  4  0  0  0  0
  6  7  4  0  0  0  0
  7  8  4  0  0  0  0
  4  9  4  0  0  0  0
  8  9  4  0  0  0  0
  8 10  1  0  0  0  0
  7 11  1  0  0  0  0
 11 12  4  0  0  0  0
 12 13  4  0  0  0  0
 13 14  4  0  0  0  0
 14 15  4  0  0  0  0
 11 16  4  0  0  0  0
 15 16  4  0  0  0  0
  2 17  1  0  0  0  0
 17 18  2  0  0  0  0
 17 19  1  0  0  0  0
  1 20  1  0  0  0  0
  1 21  1  0  0  0  0
  1 22  1  0  0  0  0
  5 23  1  0  0  0  0
  6 24  1  0  0  0  0
  9 25  1  0  0  0  0
 12 26  1  0  0  0  0
 13 27  1  0  0  0  0
 14 28  1  0  0  0  0
 15 29  1  0  0  0  0
 16 30  1  0  0  0  0
 19 31  1  0  0  0  0
M  END
