 xtb: 6.7.1 (edcfbbe)
          04112515533D

 20 19  0     0  0            999 V2000
   -3.4520   -0.9072    0.3797 C   0  0  0  0  0  0  0  0  0  0  0  0
   -2.1124   -0.2212    0.6149 C   0  0  0  0  0  0  0  0  0  0  0  0
   -1.2699   -0.1957   -0.6693 C   0  0  0  0  0  0  0  0  0  0  0  0
    0.0278    0.5164   -0.3978 C   0  0  0  0  0  0  0  0  0  0  0  0
    0.2224    1.6991   -0.5954 O   0  0  0  0  0  0  0  0  0  0  0  0
    0.9287   -0.3031    0.1225 O   0  0  0  0  0  0  0  0  0  0  0  0
    2.2256    0.2071    0.4780 C   0  0  0  0  0  0  0  0  0  0  0  0
    3.2851   -0.7876    0.0372 C   0  0  0  0  0  0  0  0  0  0  0  0
   -4.0328   -0.9179    1.2979 H   0  0  0  0  0  0  0  0  0  0  0  0
   -4.0209   -0.3810   -0.3824 H   0  0  0  0  0  0  0  0  0  0  0  0
   -3.3017   -1.9327    0.0528 H   0  0  0  0  0  0  0  0  0  0  0  0
   -1.5576   -0.7498    1.3921 H   0  0  0  0  0  0  0  0  0  0  0  0
   -2.2757    0.8044    0.9529 H   0  0  0  0  0  0  0  0  0  0  0  0
   -1.8052    0.3413   -1.4518 H   0  0  0  0  0  0  0  0  0  0  0  0
   -1.0581   -1.2156   -0.9876 H   0  0  0  0  0  0  0  0  0  0  0  0
    2.3575    1.1826   -0.0004 H   0  0  0  0  0  0  0  0  0  0  0  0
    2.2346    0.3361    1.5640 H   0  0  0  0  0  0  0  0  0  0  0  0
    3.2672   -0.9045   -1.0429 H   0  0  0  0  0  0  0  0  0  0  0  0
    4.2626   -0.4269    0.3398 H   0  0  0  0  0  0  0  0  0  0  0  0
    3.1000   -1.7535    0.4977 H   0  0  0  0  0  0  0  0  0  0  0  0
  1  2  1  0  0  0  0
  2  3  1  0  0  0  0
  3  4  1  0  0  0  0
  4  5  2  0  0  0  0
  4  6  1  0  0  0  0
  6  7  1  0  0  0  0
  7  8  1  0  0  0  0
  1  9  1  0  0  0  0
  1 10  1  0  0  0  0
  1 11  1  0  0  0  0
  2 12  1  0  0  0  0
  2 13  1  0  0  0  0
  3 14  1  0  0  0  0
  3 15  1  0  0  0  0
  7 16  1  0  0  0  0
  7 17  1  0  0  0  0
  8 18  1  0  0  0  0
  8 19  1  0  0  0  0
  8 20  1  0  0  0  0
M  END
