 xtb: 6.7.1 (edcfbbe)
          04112515533D

 20 19  0     0  0            999 V2000
   -3.6666   -0.3886    0.4155 C   0  0  0  0  0  0  0  0  0  0  0  0
   -2.3891    0.1155   -0.2433 C   0  0  0  0  0  0  0  0  0  0  0  0
   -1.1510   -0.5129    0.3900 C   0  0  0  0  0  0  0  0  0  0  0  0
    0.1280   -0.0023   -0.2194 C   0  0  0  0  0  0  0  0  0  0  0  0
    0.2105    0.9008   -1.0242 O   0  0  0  0  0  0  0  0  0  0  0  0
    1.1779   -0.6794    0.2374 O   0  0  0  0  0  0  0  0  0  0  0  0
    2.4885   -0.2977   -0.2137 C   0  0  0  0  0  0  0  0  0  0  0  0
    3.0636    0.8142    0.6503 C   0  0  0  0  0  0  0  0  0  0  0  0
   -3.7472   -1.4679    0.3135 H   0  0  0  0  0  0  0  0  0  0  0  0
   -3.6732   -0.1405    1.4739 H   0  0  0  0  0  0  0  0  0  0  0  0
   -4.5359    0.0671   -0.0501 H   0  0  0  0  0  0  0  0  0  0  0  0
   -2.3226    1.2011   -0.1513 H   0  0  0  0  0  0  0  0  0  0  0  0
   -2.4021   -0.1172   -1.3097 H   0  0  0  0  0  0  0  0  0  0  0  0
   -1.1643   -1.5991    0.2869 H   0  0  0  0  0  0  0  0  0  0  0  0
   -1.1144   -0.2894    1.4587 H   0  0  0  0  0  0  0  0  0  0  0  0
    3.0818   -1.2090   -0.1348 H   0  0  0  0  0  0  0  0  0  0  0  0
    2.4189    0.0222   -1.2579 H   0  0  0  0  0  0  0  0  0  0  0  0
    3.0705    0.5109    1.6937 H   0  0  0  0  0  0  0  0  0  0  0  0
    4.0784    1.0289    0.3322 H   0  0  0  0  0  0  0  0  0  0  0  0
    2.4630    1.7151    0.5465 H   0  0  0  0  0  0  0  0  0  0  0  0
  1  2  1  0  0  0  0
  2  3  1  0  0  0  0
  3  4  1  0  0  0  0
  4  5  2  0  0  0  0
  4  6  1  0  0  0  0
  6  7  1  0  0  0  0
  7  8  1  0  0  0  0
  1  9  1  0  0  0  0
  1 10  1  0  0  0  0
  1 11  1  0  0  0  0
  2 12  1  0  0  0  0
  2 13  1  0  0  0  0
  3 14  1  0  0  0  0
  3 15  1  0  0  0  0
  7 16  1  0  0  0  0
  7 17  1  0  0  0  0
  8 18  1  0  0  0  0
  8 19  1  0  0  0  0
  8 20  1  0  0  0  0
M  END
