 xtb: 6.7.1 (edcfbbe)
          04112515533D

 20 19  0     0  0            999 V2000
   -3.2715   -1.1717    0.2873 C   0  0  0  0  0  0  0  0  0  0  0  0
   -1.7956   -0.8220    0.4348 C   0  0  0  0  0  0  0  0  0  0  0  0
   -1.4480    0.4351   -0.3619 C   0  0  0  0  0  0  0  0  0  0  0  0
   -0.0036    0.8485   -0.2571 C   0  0  0  0  0  0  0  0  0  0  0  0
    0.3841    1.9962   -0.3686 O   0  0  0  0  0  0  0  0  0  0  0  0
    0.8157   -0.1698   -0.0507 O   0  0  0  0  0  0  0  0  0  0  0  0
    2.2220    0.1139    0.0413 C   0  0  0  0  0  0  0  0  0  0  0  0
    2.9548   -1.1946    0.2639 C   0  0  0  0  0  0  0  0  0  0  0  0
   -3.5169   -1.3607   -0.7548 H   0  0  0  0  0  0  0  0  0  0  0  0
   -3.5069   -2.0621    0.8636 H   0  0  0  0  0  0  0  0  0  0  0  0
   -3.8950   -0.3558    0.6444 H   0  0  0  0  0  0  0  0  0  0  0  0
   -1.1822   -1.6517    0.0834 H   0  0  0  0  0  0  0  0  0  0  0  0
   -1.5615   -0.6563    1.4877 H   0  0  0  0  0  0  0  0  0  0  0  0
   -2.0572    1.2838   -0.0465 H   0  0  0  0  0  0  0  0  0  0  0  0
   -1.6494    0.2648   -1.4231 H   0  0  0  0  0  0  0  0  0  0  0  0
    2.5370    0.6054   -0.8851 H   0  0  0  0  0  0  0  0  0  0  0  0
    2.3794    0.8151    0.8674 H   0  0  0  0  0  0  0  0  0  0  0  0
    2.6114   -1.6619    1.1820 H   0  0  0  0  0  0  0  0  0  0  0  0
    2.7686   -1.8711   -0.5649 H   0  0  0  0  0  0  0  0  0  0  0  0
    4.0199   -1.0013    0.3364 H   0  0  0  0  0  0  0  0  0  0  0  0
  1  2  1  0  0  0  0
  2  3  1  0  0  0  0
  3  4  1  0  0  0  0
  4  5  2  0  0  0  0
  4  6  1  0  0  0  0
  6  7  1  0  0  0  0
  7  8  1  0  0  0  0
  1  9  1  0  0  0  0
  1 10  1  0  0  0  0
  1 11  1  0  0  0  0
  2 12  1  0  0  0  0
  2 13  1  0  0  0  0
  3 14  1  0  0  0  0
  3 15  1  0  0  0  0
  7 16  1  0  0  0  0
  7 17  1  0  0  0  0
  8 18  1  0  0  0  0
  8 19  1  0  0  0  0
  8 20  1  0  0  0  0
M  END
