 xtb: 6.7.1 (edcfbbe)
          04112515563D

 33 35  0     0  0            999 V2000
   -4.5167   -1.1096   -0.4480 C   0  0  0  0  0  0  0  0  0  0  0  0
   -3.7828   -2.2726   -0.2596 C   0  0  0  0  0  0  0  0  0  0  0  0
   -2.4225   -2.2022   -0.0229 C   0  0  0  0  0  0  0  0  0  0  0  0
   -1.7706   -0.9718    0.0262 C   0  0  0  0  0  0  0  0  0  0  0  0
   -2.5119    0.1993   -0.1657 C   0  0  0  0  0  0  0  0  0  0  0  0
   -3.8835    0.1178   -0.3999 C   0  0  0  0  0  0  0  0  0  0  0  0
   -1.8611    1.5145   -0.1237 C   0  0  0  0  0  0  0  0  0  0  0  0
   -2.5029    2.5538   -0.2655 O   0  0  0  0  0  0  0  0  0  0  0  0
   -0.4032    1.5285    0.0884 C   0  0  0  0  0  0  0  0  0  0  0  0
    0.2183    2.7652    0.0693 C   0  0  0  0  0  0  0  0  0  0  0  0
    1.5950    2.8638    0.2511 C   0  0  0  0  0  0  0  0  0  0  0  0
    2.3451    1.7368    0.4536 C   0  0  0  0  0  0  0  0  0  0  0  0
    1.7538    0.4498    0.4917 C   0  0  0  0  0  0  0  0  0  0  0  0
    0.3412    0.3435    0.2979 C   0  0  0  0  0  0  0  0  0  0  0  0
   -0.3180   -0.9449    0.2909 C   0  0  0  0  0  0  0  0  0  0  0  0
    0.2739   -2.0202    0.4909 O   0  0  0  0  0  0  0  0  0  0  0  0
    2.4903   -0.6422    0.7368 N   0  0  0  0  0  0  0  0  0  0  0  0
    3.9283   -0.7078    0.7880 C   0  0  0  0  0  0  0  0  0  0  0  0
    4.5712   -0.6621   -0.6114 C   0  0  0  0  0  0  0  0  0  0  0  0
    4.2150   -1.7605   -1.4172 O   0  0  0  0  0  0  0  0  0  0  0  0
   -5.5784   -1.1614   -0.6315 H   0  0  0  0  0  0  0  0  0  0  0  0
   -4.2722   -3.2332   -0.2965 H   0  0  0  0  0  0  0  0  0  0  0  0
   -1.8347   -3.0953    0.1288 H   0  0  0  0  0  0  0  0  0  0  0  0
   -4.4290    1.0390   -0.5423 H   0  0  0  0  0  0  0  0  0  0  0  0
   -0.3899    3.6418   -0.0924 H   0  0  0  0  0  0  0  0  0  0  0  0
    2.0687    3.8327    0.2297 H   0  0  0  0  0  0  0  0  0  0  0  0
    3.4091    1.8299    0.5900 H   0  0  0  0  0  0  0  0  0  0  0  0
    1.9823   -1.5214    0.6615 H   0  0  0  0  0  0  0  0  0  0  0  0
    4.1896   -1.6483    1.2758 H   0  0  0  0  0  0  0  0  0  0  0  0
    4.3274    0.1120    1.3882 H   0  0  0  0  0  0  0  0  0  0  0  0
    5.6609   -0.5976   -0.5023 H   0  0  0  0  0  0  0  0  0  0  0  0
    4.2183    0.2176   -1.1544 H   0  0  0  0  0  0  0  0  0  0  0  0
    4.5655   -2.5735   -1.0271 H   0  0  0  0  0  0  0  0  0  0  0  0
  1  2  4  0  0  0  0
  2  3  4  0  0  0  0
  3  4  4  0  0  0  0
  4  5  4  0  0  0  0
  1  6  4  0  0  0  0
  5  6  4  0  0  0  0
  5  7  1  0  0  0  0
  7  8  2  0  0  0  0
  7  9  1  0  0  0  0
  9 10  4  0  0  0  0
 10 11  4  0  0  0  0
 11 12  2  0  0  0  0
 12 13  4  0  0  0  0
  9 14  4  0  0  0  0
 13 14  4  0  0  0  0
  4 15  1  0  0  0  0
 14 15  1  0  0  0  0
 15 16  2  0  0  0  0
 13 17  4  0  0  0  0
 17 18  1  0  0  0  0
 18 19  1  0  0  0  0
 19 20  1  0  0  0  0
  1 21  1  0  0  0  0
  2 22  1  0  0  0  0
  3 23  1  0  0  0  0
  6 24  1  0  0  0  0
 10 25  1  0  0  0  0
 11 26  1  0  0  0  0
 12 27  1  0  0  0  0
 17 28  1  0  0  0  0
 18 29  1  0  0  0  0
 18 30  1  0  0  0  0
 19 31  1  0  0  0  0
 19 32  1  0  0  0  0
 20 33  1  0  0  0  0
M  END
