 xtb: 6.7.1 (edcfbbe)
          04112515593D

 20 19  0     0  0            999 V2000
   -2.3594   -1.2896   -0.1857 C   0  0  0  0  0  0  0  0  0  0  0  0
   -1.9290   -0.2046    0.7955 C   0  0  0  0  0  0  0  0  0  0  0  0
   -1.5537    1.1135    0.1163 C   0  0  0  0  0  0  0  0  0  0  0  0
   -0.3666    0.9840   -0.8469 C   0  0  0  0  0  0  0  0  0  0  0  0
    0.8533    0.4871   -0.1182 C   0  0  0  0  0  0  0  0  0  0  0  0
    1.4028    1.0608    0.7989 O   0  0  0  0  0  0  0  0  0  0  0  0
    1.2721   -0.6802   -0.5971 O   0  0  0  0  0  0  0  0  0  0  0  0
    2.4261   -1.2698    0.0063 C   0  0  0  0  0  0  0  0  0  0  0  0
   -3.1513   -0.9213   -0.8334 H   0  0  0  0  0  0  0  0  0  0  0  0
   -1.5241   -1.6123   -0.8015 H   0  0  0  0  0  0  0  0  0  0  0  0
   -2.7329   -2.1551    0.3557 H   0  0  0  0  0  0  0  0  0  0  0  0
   -2.7477   -0.0066    1.4906 H   0  0  0  0  0  0  0  0  0  0  0  0
   -1.0797   -0.5599    1.3850 H   0  0  0  0  0  0  0  0  0  0  0  0
   -1.2941    1.8433    0.8858 H   0  0  0  0  0  0  0  0  0  0  0  0
   -2.4114    1.4920   -0.4411 H   0  0  0  0  0  0  0  0  0  0  0  0
   -0.1345    1.9691   -1.2539 H   0  0  0  0  0  0  0  0  0  0  0  0
   -0.5926    0.2995   -1.6618 H   0  0  0  0  0  0  0  0  0  0  0  0
    3.2483   -0.5532    0.0179 H   0  0  0  0  0  0  0  0  0  0  0  0
    2.6678   -2.1348   -0.6030 H   0  0  0  0  0  0  0  0  0  0  0  0
    2.1996   -1.5655    1.0314 H   0  0  0  0  0  0  0  0  0  0  0  0
  1  2  1  0  0  0  0
  2  3  1  0  0  0  0
  3  4  1  0  0  0  0
  4  5  1  0  0  0  0
  5  6  2  0  0  0  0
  5  7  1  0  0  0  0
  7  8  1  0  0  0  0
  1  9  1  0  0  0  0
  1 10  1  0  0  0  0
  1 11  1  0  0  0  0
  2 12  1  0  0  0  0
  2 13  1  0  0  0  0
  3 14  1  0  0  0  0
  3 15  1  0  0  0  0
  4 16  1  0  0  0  0
  4 17  1  0  0  0  0
  8 18  1  0  0  0  0
  8 19  1  0  0  0  0
  8 20  1  0  0  0  0
M  END
