 xtb: 6.7.1 (edcfbbe)
          04112515543D

 17 16  0     0  0            999 V2000
    2.9004   -0.6567   -0.5426 C   0  0  0  0  0  0  0  0  0  0  0  0
    2.4234    0.2871    0.5558 C   0  0  0  0  0  0  0  0  0  0  0  0
    0.9064    0.2738    0.7463 C   0  0  0  0  0  0  0  0  0  0  0  0
    0.1485    0.8529   -0.4475 C   0  0  0  0  0  0  0  0  0  0  0  0
   -1.3451    0.9497   -0.1967 C   0  0  0  0  0  0  0  0  0  0  0  0
   -2.0849   -0.6841   -0.0293 Cl  0  0  0  0  0  0  0  0  0  0  0  0
    2.5482   -0.3336   -1.5183 H   0  0  0  0  0  0  0  0  0  0  0  0
    2.5357   -1.6654   -0.3608 H   0  0  0  0  0  0  0  0  0  0  0  0
    3.9870   -0.6849   -0.5682 H   0  0  0  0  0  0  0  0  0  0  0  0
    2.8905   -0.0067    1.4983 H   0  0  0  0  0  0  0  0  0  0  0  0
    2.7495    1.3040    0.3279 H   0  0  0  0  0  0  0  0  0  0  0  0
    0.6593    0.8584    1.6355 H   0  0  0  0  0  0  0  0  0  0  0  0
    0.5738   -0.7515    0.9210 H   0  0  0  0  0  0  0  0  0  0  0  0
    0.3232    0.2419   -1.3331 H   0  0  0  0  0  0  0  0  0  0  0  0
    0.5111    1.8628   -0.6511 H   0  0  0  0  0  0  0  0  0  0  0  0
   -1.5640    1.4736    0.7322 H   0  0  0  0  0  0  0  0  0  0  0  0
   -1.8614    1.4242   -1.0289 H   0  0  0  0  0  0  0  0  0  0  0  0
  1  2  1  0  0  0  0
  2  3  1  0  0  0  0
  3  4  1  0  0  0  0
  4  5  1  0  0  0  0
  5  6  1  0  0  0  0
  1  7  1  0  0  0  0
  1  8  1  0  0  0  0
  1  9  1  0  0  0  0
  2 10  1  0  0  0  0
  2 11  1  0  0  0  0
  3 12  1  0  0  0  0
  3 13  1  0  0  0  0
  4 14  1  0  0  0  0
  4 15  1  0  0  0  0
  5 16  1  0  0  0  0
  5 17  1  0  0  0  0
M  END
