 xtb: 6.7.1 (edcfbbe)
          04112515563D

 33 35  0     0  0            999 V2000
   -4.6501   -0.9545    0.1866 C   0  0  0  0  0  0  0  0  0  0  0  0
   -3.9746   -2.1592    0.0475 C   0  0  0  0  0  0  0  0  0  0  0  0
   -2.5974   -2.1710   -0.0719 C   0  0  0  0  0  0  0  0  0  0  0  0
   -1.8709   -0.9820   -0.0569 C   0  0  0  0  0  0  0  0  0  0  0  0
   -2.5536    0.2314    0.0833 C   0  0  0  0  0  0  0  0  0  0  0  0
   -3.9421    0.2321    0.2051 C   0  0  0  0  0  0  0  0  0  0  0  0
   -1.8238    1.5050    0.1059 C   0  0  0  0  0  0  0  0  0  0  0  0
   -2.4084    2.5781    0.2440 O   0  0  0  0  0  0  0  0  0  0  0  0
   -0.3605    1.4361   -0.0499 C   0  0  0  0  0  0  0  0  0  0  0  0
    0.3255    2.6381   -0.0472 C   0  0  0  0  0  0  0  0  0  0  0  0
    1.7118    2.6587   -0.1790 C   0  0  0  0  0  0  0  0  0  0  0  0
    2.4067    1.4890   -0.3278 C   0  0  0  0  0  0  0  0  0  0  0  0
    1.7471    0.2352   -0.3589 C   0  0  0  0  0  0  0  0  0  0  0  0
    0.3258    0.2071   -0.1992 C   0  0  0  0  0  0  0  0  0  0  0  0
   -0.4018   -1.0431   -0.1869 C   0  0  0  0  0  0  0  0  0  0  0  0
    0.1465   -2.1566   -0.2770 O   0  0  0  0  0  0  0  0  0  0  0  0
    2.4312   -0.9033   -0.5346 N   0  0  0  0  0  0  0  0  0  0  0  0
    3.8447   -1.0481   -0.7719 C   0  0  0  0  0  0  0  0  0  0  0  0
    4.6510   -1.2555    0.5249 C   0  0  0  0  0  0  0  0  0  0  0  0
    4.7163   -0.1021    1.3329 O   0  0  0  0  0  0  0  0  0  0  0  0
   -5.7246   -0.9426    0.2803 H   0  0  0  0  0  0  0  0  0  0  0  0
   -4.5227   -3.0882    0.0325 H   0  0  0  0  0  0  0  0  0  0  0  0
   -2.0538   -3.0979   -0.1800 H   0  0  0  0  0  0  0  0  0  0  0  0
   -4.4409    1.1839    0.3130 H   0  0  0  0  0  0  0  0  0  0  0  0
   -0.2397    3.5501    0.0687 H   0  0  0  0  0  0  0  0  0  0  0  0
    2.2373    3.6002   -0.1568 H   0  0  0  0  0  0  0  0  0  0  0  0
    3.4814    1.5202   -0.3983 H   0  0  0  0  0  0  0  0  0  0  0  0
    1.8729   -1.7537   -0.4872 H   0  0  0  0  0  0  0  0  0  0  0  0
    4.2342   -0.1775   -1.3013 H   0  0  0  0  0  0  0  0  0  0  0  0
    3.9886   -1.9291   -1.3989 H   0  0  0  0  0  0  0  0  0  0  0  0
    5.6848   -1.4863    0.2602 H   0  0  0  0  0  0  0  0  0  0  0  0
    4.2328   -2.0988    1.0863 H   0  0  0  0  0  0  0  0  0  0  0  0
    3.8541    0.0545    1.7396 H   0  0  0  0  0  0  0  0  0  0  0  0
  1  2  4  0  0  0  0
  2  3  4  0  0  0  0
  3  4  4  0  0  0  0
  4  5  4  0  0  0  0
  1  6  4  0  0  0  0
  5  6  4  0  0  0  0
  5  7  1  0  0  0  0
  7  8  2  0  0  0  0
  7  9  1  0  0  0  0
  9 10  4  0  0  0  0
 10 11  4  0  0  0  0
 11 12  2  0  0  0  0
 12 13  4  0  0  0  0
  9 14  4  0  0  0  0
 13 14  4  0  0  0  0
  4 15  1  0  0  0  0
 14 15  1  0  0  0  0
 15 16  2  0  0  0  0
 13 17  4  0  0  0  0
 17 18  1  0  0  0  0
 18 19  1  0  0  0  0
 19 20  1  0  0  0  0
  1 21  1  0  0  0  0
  2 22  1  0  0  0  0
  3 23  1  0  0  0  0
  6 24  1  0  0  0  0
 10 25  1  0  0  0  0
 11 26  1  0  0  0  0
 12 27  1  0  0  0  0
 17 28  1  0  0  0  0
 18 29  1  0  0  0  0
 18 30  1  0  0  0  0
 19 31  1  0  0  0  0
 19 32  1  0  0  0  0
 20 33  1  0  0  0  0
M  END
