 xtb: 6.7.1 (edcfbbe)
          04112515593D

 20 19  0     0  0            999 V2000
   -3.3808    0.3927    0.7739 C   0  0  0  0  0  0  0  0  0  0  0  0
   -2.7874   -0.5612   -0.2568 C   0  0  0  0  0  0  0  0  0  0  0  0
   -1.3928   -0.1490   -0.7267 C   0  0  0  0  0  0  0  0  0  0  0  0
   -0.3385   -0.2695    0.3728 C   0  0  0  0  0  0  0  0  0  0  0  0
    1.0236    0.1540   -0.1080 C   0  0  0  0  0  0  0  0  0  0  0  0
    1.2365    0.9357   -1.0107 O   0  0  0  0  0  0  0  0  0  0  0  0
    1.9833   -0.4353    0.5992 O   0  0  0  0  0  0  0  0  0  0  0  0
    3.3516   -0.1288    0.3105 C   0  0  0  0  0  0  0  0  0  0  0  0
   -2.8172    0.3700    1.7027 H   0  0  0  0  0  0  0  0  0  0  0  0
   -3.3787    1.4111    0.3923 H   0  0  0  0  0  0  0  0  0  0  0  0
   -4.4072    0.1121    0.9962 H   0  0  0  0  0  0  0  0  0  0  0  0
   -2.7436   -1.5687    0.1612 H   0  0  0  0  0  0  0  0  0  0  0  0
   -3.4445   -0.5922   -1.1279 H   0  0  0  0  0  0  0  0  0  0  0  0
   -1.4108    0.8816   -1.0862 H   0  0  0  0  0  0  0  0  0  0  0  0
   -1.0958   -0.7804   -1.5667 H   0  0  0  0  0  0  0  0  0  0  0  0
   -0.2712   -1.2886    0.7540 H   0  0  0  0  0  0  0  0  0  0  0  0
   -0.5925    0.3866    1.2083 H   0  0  0  0  0  0  0  0  0  0  0  0
    3.8604   -1.0681    0.1045 H   0  0  0  0  0  0  0  0  0  0  0  0
    3.7805    0.3502    1.1889 H   0  0  0  0  0  0  0  0  0  0  0  0
    3.4071    0.5364   -0.5519 H   0  0  0  0  0  0  0  0  0  0  0  0
  1  2  1  0  0  0  0
  2  3  1  0  0  0  0
  3  4  1  0  0  0  0
  4  5  1  0  0  0  0
  5  6  2  0  0  0  0
  5  7  1  0  0  0  0
  7  8  1  0  0  0  0
  1  9  1  0  0  0  0
  1 10  1  0  0  0  0
  1 11  1  0  0  0  0
  2 12  1  0  0  0  0
  2 13  1  0  0  0  0
  3 14  1  0  0  0  0
  3 15  1  0  0  0  0
  4 16  1  0  0  0  0
  4 17  1  0  0  0  0
  8 18  1  0  0  0  0
  8 19  1  0  0  0  0
  8 20  1  0  0  0  0
M  END
