 xtb: 6.7.1 (edcfbbe)
          04112512293D

 21 20  0     0  0            999 V2000
    1.9911    1.0039   -0.8742 C   0  0  0  0  0  0  0  0  0  0  0  0
    1.4289   -0.3122   -0.3634 C   0  0  0  0  0  0  0  0  0  0  0  0
    2.4731   -1.1168    0.3948 C   0  0  0  0  0  0  0  0  0  0  0  0
    0.0008   -0.0180    0.7740 S   0  0  0  0  0  0  0  0  0  0  0  0
   -1.4520   -0.0805   -0.3691 C   0  0  0  0  0  0  0  0  0  0  0  0
   -2.5811   -0.8099    0.3421 C   0  0  0  0  0  0  0  0  0  0  0  0
   -1.8635    1.3198   -0.7926 C   0  0  0  0  0  0  0  0  0  0  0  0
    1.2389    1.5619   -1.4266 H   0  0  0  0  0  0  0  0  0  0  0  0
    2.3287    1.6131   -0.0389 H   0  0  0  0  0  0  0  0  0  0  0  0
    2.8347    0.8140   -1.5346 H   0  0  0  0  0  0  0  0  0  0  0  0
    1.0295   -0.9051   -1.1902 H   0  0  0  0  0  0  0  0  0  0  0  0
    2.0462   -2.0492    0.7558 H   0  0  0  0  0  0  0  0  0  0  0  0
    2.8334   -0.5499    1.2501 H   0  0  0  0  0  0  0  0  0  0  0  0
    3.3135   -1.3417   -0.2578 H   0  0  0  0  0  0  0  0  0  0  0  0
   -1.1196   -0.6597   -1.2343 H   0  0  0  0  0  0  0  0  0  0  0  0
   -3.4385   -0.9030   -0.3205 H   0  0  0  0  0  0  0  0  0  0  0  0
   -2.2606   -1.8030    0.6471 H   0  0  0  0  0  0  0  0  0  0  0  0
   -2.8811   -0.2581    1.2300 H   0  0  0  0  0  0  0  0  0  0  0  0
   -2.1348    1.9077    0.0811 H   0  0  0  0  0  0  0  0  0  0  0  0
   -2.7205    1.2669   -1.4608 H   0  0  0  0  0  0  0  0  0  0  0  0
   -1.0523    1.8261   -1.3095 H   0  0  0  0  0  0  0  0  0  0  0  0
  1  2  1  0  0  0  0
  2  3  1  0  0  0  0
  2  4  1  0  0  0  0
  4  5  1  0  0  0  0
  5  6  1  0  0  0  0
  5  7  1  0  0  0  0
  1  8  1  0  0  0  0
  1  9  1  0  0  0  0
  1 10  1  0  0  0  0
  2 11  1  0  0  0  0
  3 12  1  0  0  0  0
  3 13  1  0  0  0  0
  3 14  1  0  0  0  0
  5 15  1  0  0  0  0
  6 16  1  0  0  0  0
  6 17  1  0  0  0  0
  6 18  1  0  0  0  0
  7 19  1  0  0  0  0
  7 20  1  0  0  0  0
  7 21  1  0  0  0  0
M  END
