 xtb: 6.7.1 (edcfbbe)
          04112515533D

 20 19  0     0  0            999 V2000
   -2.5828   -1.2727   -0.0149 C   0  0  0  0  0  0  0  0  0  0  0  0
   -2.5218    0.2499   -0.0032 C   0  0  0  0  0  0  0  0  0  0  0  0
   -1.2500    0.7586    0.6842 C   0  0  0  0  0  0  0  0  0  0  0  0
   -0.0278    0.3889   -0.1167 C   0  0  0  0  0  0  0  0  0  0  0  0
    0.1529    0.6846   -1.2797 O   0  0  0  0  0  0  0  0  0  0  0  0
    0.8320   -0.3195    0.6048 O   0  0  0  0  0  0  0  0  0  0  0  0
    2.0667   -0.7335   -0.0035 C   0  0  0  0  0  0  0  0  0  0  0  0
    3.1472    0.3200    0.1858 C   0  0  0  0  0  0  0  0  0  0  0  0
   -1.7443   -1.6829   -0.5749 H   0  0  0  0  0  0  0  0  0  0  0  0
   -2.5431   -1.6646    0.9986 H   0  0  0  0  0  0  0  0  0  0  0  0
   -3.5037   -1.6113   -0.4820 H   0  0  0  0  0  0  0  0  0  0  0  0
   -3.3891    0.6476    0.5244 H   0  0  0  0  0  0  0  0  0  0  0  0
   -2.5391    0.6268   -1.0276 H   0  0  0  0  0  0  0  0  0  0  0  0
   -1.1519    0.3388    1.6845 H   0  0  0  0  0  0  0  0  0  0  0  0
   -1.2835    1.8474    0.7471 H   0  0  0  0  0  0  0  0  0  0  0  0
    2.3265   -1.6639    0.5026 H   0  0  0  0  0  0  0  0  0  0  0  0
    1.8875   -0.9161   -1.0676 H   0  0  0  0  0  0  0  0  0  0  0  0
    2.8699    1.2354   -0.3322 H   0  0  0  0  0  0  0  0  0  0  0  0
    3.2766    0.5365    1.2428 H   0  0  0  0  0  0  0  0  0  0  0  0
    4.0830   -0.0467   -0.2231 H   0  0  0  0  0  0  0  0  0  0  0  0
  1  2  1  0  0  0  0
  2  3  1  0  0  0  0
  3  4  1  0  0  0  0
  4  5  2  0  0  0  0
  4  6  1  0  0  0  0
  6  7  1  0  0  0  0
  7  8  1  0  0  0  0
  1  9  1  0  0  0  0
  1 10  1  0  0  0  0
  1 11  1  0  0  0  0
  2 12  1  0  0  0  0
  2 13  1  0  0  0  0
  3 14  1  0  0  0  0
  3 15  1  0  0  0  0
  7 16  1  0  0  0  0
  7 17  1  0  0  0  0
  8 18  1  0  0  0  0
  8 19  1  0  0  0  0
  8 20  1  0  0  0  0
M  END
