 xtb: 6.7.1 (edcfbbe)
          04112515533D

 20 19  0     0  0            999 V2000
   -3.5417   -0.8125    0.0572 C   0  0  0  0  0  0  0  0  0  0  0  0
   -2.1585   -0.3719    0.5177 C   0  0  0  0  0  0  0  0  0  0  0  0
   -1.2284   -0.1164   -0.6722 C   0  0  0  0  0  0  0  0  0  0  0  0
    0.0935    0.4412   -0.2138 C   0  0  0  0  0  0  0  0  0  0  0  0
    0.2237    1.3782    0.5461 O   0  0  0  0  0  0  0  0  0  0  0  0
    1.1136   -0.2154   -0.7525 O   0  0  0  0  0  0  0  0  0  0  0  0
    2.4499    0.1892   -0.4080 C   0  0  0  0  0  0  0  0  0  0  0  0
    2.9170   -0.4947    0.8677 C   0  0  0  0  0  0  0  0  0  0  0  0
   -3.4741   -1.7251   -0.5295 H   0  0  0  0  0  0  0  0  0  0  0  0
   -4.1806   -1.0004    0.9156 H   0  0  0  0  0  0  0  0  0  0  0  0
   -4.0038   -0.0418   -0.5544 H   0  0  0  0  0  0  0  0  0  0  0  0
   -1.7209   -1.1417    1.1563 H   0  0  0  0  0  0  0  0  0  0  0  0
   -2.2317    0.5453    1.1054 H   0  0  0  0  0  0  0  0  0  0  0  0
   -1.6868    0.6253   -1.3301 H   0  0  0  0  0  0  0  0  0  0  0  0
   -1.0480   -1.0295   -1.2380 H   0  0  0  0  0  0  0  0  0  0  0  0
    3.0562   -0.1085   -1.2639 H   0  0  0  0  0  0  0  0  0  0  0  0
    2.4650    1.2769   -0.2896 H   0  0  0  0  0  0  0  0  0  0  0  0
    2.3012   -0.1775    1.7065 H   0  0  0  0  0  0  0  0  0  0  0  0
    2.8438   -1.5737    0.7621 H   0  0  0  0  0  0  0  0  0  0  0  0
    3.9486   -0.2222    1.0651 H   0  0  0  0  0  0  0  0  0  0  0  0
  1  2  1  0  0  0  0
  2  3  1  0  0  0  0
  3  4  1  0  0  0  0
  4  5  2  0  0  0  0
  4  6  1  0  0  0  0
  6  7  1  0  0  0  0
  7  8  1  0  0  0  0
  1  9  1  0  0  0  0
  1 10  1  0  0  0  0
  1 11  1  0  0  0  0
  2 12  1  0  0  0  0
  2 13  1  0  0  0  0
  3 14  1  0  0  0  0
  3 15  1  0  0  0  0
  7 16  1  0  0  0  0
  7 17  1  0  0  0  0
  8 18  1  0  0  0  0
  8 19  1  0  0  0  0
  8 20  1  0  0  0  0
M  END
