 xtb: 6.7.1 (edcfbbe)
          04112515533D

 20 19  0     0  0            999 V2000
   -2.4742   -0.9788    0.9427 C   0  0  0  0  0  0  0  0  0  0  0  0
   -2.5535    0.0787   -0.1516 C   0  0  0  0  0  0  0  0  0  0  0  0
   -1.2901    0.0889   -1.0182 C   0  0  0  0  0  0  0  0  0  0  0  0
   -0.0949    0.5375   -0.2172 C   0  0  0  0  0  0  0  0  0  0  0  0
   -0.0325    1.5692    0.4206 O   0  0  0  0  0  0  0  0  0  0  0  0
    0.9007   -0.3341   -0.2908 O   0  0  0  0  0  0  0  0  0  0  0  0
    2.1228   -0.0366    0.4057 C   0  0  0  0  0  0  0  0  0  0  0  0
    3.2305   -0.8840   -0.1905 C   0  0  0  0  0  0  0  0  0  0  0  0
   -1.6411   -0.7705    1.6117 H   0  0  0  0  0  0  0  0  0  0  0  0
   -3.3890   -0.9866    1.5291 H   0  0  0  0  0  0  0  0  0  0  0  0
   -2.3301   -1.9662    0.5107 H   0  0  0  0  0  0  0  0  0  0  0  0
   -2.6746    1.0655    0.2993 H   0  0  0  0  0  0  0  0  0  0  0  0
   -3.4159   -0.1169   -0.7892 H   0  0  0  0  0  0  0  0  0  0  0  0
   -1.4185    0.7982   -1.8375 H   0  0  0  0  0  0  0  0  0  0  0  0
   -1.0848   -0.9006   -1.4249 H   0  0  0  0  0  0  0  0  0  0  0  0
    2.3264    1.0348    0.3073 H   0  0  0  0  0  0  0  0  0  0  0  0
    1.9724   -0.2623    1.4664 H   0  0  0  0  0  0  0  0  0  0  0  0
    4.1575   -0.6862    0.3374 H   0  0  0  0  0  0  0  0  0  0  0  0
    2.9814   -1.9368   -0.0979 H   0  0  0  0  0  0  0  0  0  0  0  0
    3.3590   -0.6456   -1.2423 H   0  0  0  0  0  0  0  0  0  0  0  0
  1  2  1  0  0  0  0
  2  3  1  0  0  0  0
  3  4  1  0  0  0  0
  4  5  2  0  0  0  0
  4  6  1  0  0  0  0
  6  7  1  0  0  0  0
  7  8  1  0  0  0  0
  1  9  1  0  0  0  0
  1 10  1  0  0  0  0
  1 11  1  0  0  0  0
  2 12  1  0  0  0  0
  2 13  1  0  0  0  0
  3 14  1  0  0  0  0
  3 15  1  0  0  0  0
  7 16  1  0  0  0  0
  7 17  1  0  0  0  0
  8 18  1  0  0  0  0
  8 19  1  0  0  0  0
  8 20  1  0  0  0  0
M  END
