 xtb: 6.7.1 (edcfbbe)
          04112515553D

 17 16  0     0  0            999 V2000
    1.6214   -1.6591    0.2363 C   0  0  0  0  0  0  0  0  0  0  0  0
    0.3423   -1.0546    0.3918 O   0  0  0  0  0  0  0  0  0  0  0  0
    0.0049   -0.1770   -0.6300 C   0  0  0  0  0  0  0  0  0  0  0  0
    0.7647    0.9935   -0.5909 O   0  0  0  0  0  0  0  0  0  0  0  0
    0.6871    1.7807    0.6013 C   0  0  0  0  0  0  0  0  0  0  0  0
   -1.3628    0.0239   -0.6610 O   0  0  0  0  0  0  0  0  0  0  0  0
   -2.0802    0.0882    0.5796 C   0  0  0  0  0  0  0  0  0  0  0  0
    1.6329   -2.2893   -0.6563 H   0  0  0  0  0  0  0  0  0  0  0  0
    1.7652   -2.2602    1.1294 H   0  0  0  0  0  0  0  0  0  0  0  0
    2.3996   -0.8974    0.1571 H   0  0  0  0  0  0  0  0  0  0  0  0
    0.2560   -0.5988   -1.6204 H   0  0  0  0  0  0  0  0  0  0  0  0
    1.6003    2.3710    0.6161 H   0  0  0  0  0  0  0  0  0  0  0  0
    0.6391    1.1381    1.4819 H   0  0  0  0  0  0  0  0  0  0  0  0
   -0.1803    2.4423    0.5618 H   0  0  0  0  0  0  0  0  0  0  0  0
   -1.9607    1.0610    1.0576 H   0  0  0  0  0  0  0  0  0  0  0  0
   -1.7532   -0.7055    1.2499 H   0  0  0  0  0  0  0  0  0  0  0  0
   -3.1187   -0.0615    0.2957 H   0  0  0  0  0  0  0  0  0  0  0  0
  1  2  1  0  0  0  0
  2  3  1  0  0  0  0
  3  4  1  0  0  0  0
  4  5  1  0  0  0  0
  3  6  1  0  0  0  0
  6  7  1  0  0  0  0
  1  8  1  0  0  0  0
  1  9  1  0  0  0  0
  1 10  1  0  0  0  0
  3 11  1  0  0  0  0
  5 12  1  0  0  0  0
  5 13  1  0  0  0  0
  5 14  1  0  0  0  0
  7 15  1  0  0  0  0
  7 16  1  0  0  0  0
  7 17  1  0  0  0  0
M  END
