 xtb: 6.7.1 (edcfbbe)
          04112515533D

 20 19  0     0  0            999 V2000
   -3.6462   -0.6182    0.2461 C   0  0  0  0  0  0  0  0  0  0  0  0
   -2.3461   -0.1735   -0.4112 C   0  0  0  0  0  0  0  0  0  0  0  0
   -1.1812   -0.2138    0.5738 C   0  0  0  0  0  0  0  0  0  0  0  0
    0.1093    0.2537   -0.0456 C   0  0  0  0  0  0  0  0  0  0  0  0
    0.2294    0.6945   -1.1687 O   0  0  0  0  0  0  0  0  0  0  0  0
    1.1208    0.1365    0.8105 O   0  0  0  0  0  0  0  0  0  0  0  0
    2.4331    0.5325    0.3768 C   0  0  0  0  0  0  0  0  0  0  0  0
    3.1397   -0.6036   -0.3468 C   0  0  0  0  0  0  0  0  0  0  0  0
   -3.8951    0.0347    1.0789 H   0  0  0  0  0  0  0  0  0  0  0  0
   -4.4611   -0.5861   -0.4716 H   0  0  0  0  0  0  0  0  0  0  0  0
   -3.5560   -1.6351    0.6197 H   0  0  0  0  0  0  0  0  0  0  0  0
   -2.4496    0.8422   -0.7973 H   0  0  0  0  0  0  0  0  0  0  0  0
   -2.1171   -0.8192   -1.2609 H   0  0  0  0  0  0  0  0  0  0  0  0
   -1.0245   -1.2251    0.9531 H   0  0  0  0  0  0  0  0  0  0  0  0
   -1.3835    0.4266    1.4350 H   0  0  0  0  0  0  0  0  0  0  0  0
    2.3360    1.4041   -0.2777 H   0  0  0  0  0  0  0  0  0  0  0  0
    2.9545    0.8036    1.2952 H   0  0  0  0  0  0  0  0  0  0  0  0
    2.6061   -0.8508   -1.2619 H   0  0  0  0  0  0  0  0  0  0  0  0
    4.1490   -0.2960   -0.5999 H   0  0  0  0  0  0  0  0  0  0  0  0
    3.1808   -1.4839    0.2888 H   0  0  0  0  0  0  0  0  0  0  0  0
  1  2  1  0  0  0  0
  2  3  1  0  0  0  0
  3  4  1  0  0  0  0
  4  5  2  0  0  0  0
  4  6  1  0  0  0  0
  6  7  1  0  0  0  0
  7  8  1  0  0  0  0
  1  9  1  0  0  0  0
  1 10  1  0  0  0  0
  1 11  1  0  0  0  0
  2 12  1  0  0  0  0
  2 13  1  0  0  0  0
  3 14  1  0  0  0  0
  3 15  1  0  0  0  0
  7 16  1  0  0  0  0
  7 17  1  0  0  0  0
  8 18  1  0  0  0  0
  8 19  1  0  0  0  0
  8 20  1  0  0  0  0
M  END
