 xtb: 6.7.1 (edcfbbe)
          04112515533D

 20 19  0     0  0            999 V2000
   -2.5652   -0.5697    1.0867 C   0  0  0  0  0  0  0  0  0  0  0  0
   -2.0894   -0.8152   -0.3400 C   0  0  0  0  0  0  0  0  0  0  0  0
   -1.3761    0.4128   -0.9198 C   0  0  0  0  0  0  0  0  0  0  0  0
   -0.1048    0.7092   -0.1663 C   0  0  0  0  0  0  0  0  0  0  0  0
    0.1118    1.7298    0.4563 O   0  0  0  0  0  0  0  0  0  0  0  0
    0.7653   -0.2846   -0.2651 O   0  0  0  0  0  0  0  0  0  0  0  0
    2.0339   -0.1608    0.3980 C   0  0  0  0  0  0  0  0  0  0  0  0
    3.0515   -1.0022   -0.3497 C   0  0  0  0  0  0  0  0  0  0  0  0
   -3.2703    0.2576    1.1167 H   0  0  0  0  0  0  0  0  0  0  0  0
   -3.0543   -1.4559    1.4822 H   0  0  0  0  0  0  0  0  0  0  0  0
   -1.7267   -0.3197    1.7344 H   0  0  0  0  0  0  0  0  0  0  0  0
   -2.9456   -1.0497   -0.9732 H   0  0  0  0  0  0  0  0  0  0  0  0
   -1.4044   -1.6638   -0.3617 H   0  0  0  0  0  0  0  0  0  0  0  0
   -2.0172    1.2923   -0.8627 H   0  0  0  0  0  0  0  0  0  0  0  0
   -1.1111    0.2200   -1.9598 H   0  0  0  0  0  0  0  0  0  0  0  0
    2.3132    0.8977    0.4199 H   0  0  0  0  0  0  0  0  0  0  0  0
    1.9099   -0.5097    1.4281 H   0  0  0  0  0  0  0  0  0  0  0  0
    2.7263   -2.0378   -0.3781 H   0  0  0  0  0  0  0  0  0  0  0  0
    3.1613   -0.6412   -1.3683 H   0  0  0  0  0  0  0  0  0  0  0  0
    4.0092   -0.9403    0.1564 H   0  0  0  0  0  0  0  0  0  0  0  0
  1  2  1  0  0  0  0
  2  3  1  0  0  0  0
  3  4  1  0  0  0  0
  4  5  2  0  0  0  0
  4  6  1  0  0  0  0
  6  7  1  0  0  0  0
  7  8  1  0  0  0  0
  1  9  1  0  0  0  0
  1 10  1  0  0  0  0
  1 11  1  0  0  0  0
  2 12  1  0  0  0  0
  2 13  1  0  0  0  0
  3 14  1  0  0  0  0
  3 15  1  0  0  0  0
  7 16  1  0  0  0  0
  7 17  1  0  0  0  0
  8 18  1  0  0  0  0
  8 19  1  0  0  0  0
  8 20  1  0  0  0  0
M  END
