 xtb: 6.7.1 (edcfbbe)
          04112515593D

 20 19  0     0  0            999 V2000
   -3.3919    0.4993    0.6699 C   0  0  0  0  0  0  0  0  0  0  0  0
   -2.7792   -0.6159   -0.1697 C   0  0  0  0  0  0  0  0  0  0  0  0
   -1.3811   -0.2812   -0.6884 C   0  0  0  0  0  0  0  0  0  0  0  0
   -0.3380   -0.2030    0.4265 C   0  0  0  0  0  0  0  0  0  0  0  0
    1.0210    0.1609   -0.1087 C   0  0  0  0  0  0  0  0  0  0  0  0
    1.2274    0.8671   -1.0730 O   0  0  0  0  0  0  0  0  0  0  0  0
    1.9872   -0.3805    0.6270 O   0  0  0  0  0  0  0  0  0  0  0  0
    3.3515   -0.1149    0.2851 C   0  0  0  0  0  0  0  0  0  0  0  0
   -4.4186    0.2521    0.9282 H   0  0  0  0  0  0  0  0  0  0  0  0
   -2.8389    0.6467    1.5936 H   0  0  0  0  0  0  0  0  0  0  0  0
   -3.3937    1.4344    0.1144 H   0  0  0  0  0  0  0  0  0  0  0  0
   -2.7351   -1.5341    0.4191 H   0  0  0  0  0  0  0  0  0  0  0  0
   -3.4246   -0.8042   -1.0296 H   0  0  0  0  0  0  0  0  0  0  0  0
   -1.3991    0.6723   -1.2197 H   0  0  0  0  0  0  0  0  0  0  0  0
   -1.0717   -1.0467   -1.4033 H   0  0  0  0  0  0  0  0  0  0  0  0
   -0.2587   -1.1449    0.9690 H   0  0  0  0  0  0  0  0  0  0  0  0
   -0.6138    0.5783    1.1380 H   0  0  0  0  0  0  0  0  0  0  0  0
    3.4028    0.7253   -0.4082 H   0  0  0  0  0  0  0  0  0  0  0  0
    3.7717   -1.0067   -0.1780 H   0  0  0  0  0  0  0  0  0  0  0  0
    3.8716    0.1125    1.2124 H   0  0  0  0  0  0  0  0  0  0  0  0
  1  2  1  0  0  0  0
  2  3  1  0  0  0  0
  3  4  1  0  0  0  0
  4  5  1  0  0  0  0
  5  6  2  0  0  0  0
  5  7  1  0  0  0  0
  7  8  1  0  0  0  0
  1  9  1  0  0  0  0
  1 10  1  0  0  0  0
  1 11  1  0  0  0  0
  2 12  1  0  0  0  0
  2 13  1  0  0  0  0
  3 14  1  0  0  0  0
  3 15  1  0  0  0  0
  4 16  1  0  0  0  0
  4 17  1  0  0  0  0
  8 18  1  0  0  0  0
  8 19  1  0  0  0  0
  8 20  1  0  0  0  0
M  END
