 xtb: 6.7.1 (edcfbbe)
          04112515533D

 20 19  0     0  0            999 V2000
   -2.6430   -1.2371   -0.0336 C   0  0  0  0  0  0  0  0  0  0  0  0
   -2.5244    0.2821   -0.0163 C   0  0  0  0  0  0  0  0  0  0  0  0
   -1.2419    0.7387    0.6851 C   0  0  0  0  0  0  0  0  0  0  0  0
   -0.0225    0.3413   -0.1072 C   0  0  0  0  0  0  0  0  0  0  0  0
    0.1380    0.5606   -1.2897 O   0  0  0  0  0  0  0  0  0  0  0  0
    0.8646   -0.2924    0.6506 O   0  0  0  0  0  0  0  0  0  0  0  0
    2.1030   -0.7132    0.0545 C   0  0  0  0  0  0  0  0  0  0  0  0
    3.1443    0.3938    0.1155 C   0  0  0  0  0  0  0  0  0  0  0  0
   -3.5677   -1.5397   -0.5175 H   0  0  0  0  0  0  0  0  0  0  0  0
   -1.8108   -1.6764   -0.5810 H   0  0  0  0  0  0  0  0  0  0  0  0
   -2.6355   -1.6329    0.9792 H   0  0  0  0  0  0  0  0  0  0  0  0
   -3.3821    0.7110    0.5023 H   0  0  0  0  0  0  0  0  0  0  0  0
   -2.5154    0.6610   -1.0400 H   0  0  0  0  0  0  0  0  0  0  0  0
   -1.1638    0.3091    1.6831 H   0  0  0  0  0  0  0  0  0  0  0  0
   -1.2375    1.8276    0.7611 H   0  0  0  0  0  0  0  0  0  0  0  0
    2.4101   -1.5801    0.6404 H   0  0  0  0  0  0  0  0  0  0  0  0
    1.9099   -1.0037   -0.9828 H   0  0  0  0  0  0  0  0  0  0  0  0
    4.0853    0.0246   -0.2790 H   0  0  0  0  0  0  0  0  0  0  0  0
    2.8200    1.2433   -0.4817 H   0  0  0  0  0  0  0  0  0  0  0  0
    3.2868    0.7168    1.1431 H   0  0  0  0  0  0  0  0  0  0  0  0
  1  2  1  0  0  0  0
  2  3  1  0  0  0  0
  3  4  1  0  0  0  0
  4  5  2  0  0  0  0
  4  6  1  0  0  0  0
  6  7  1  0  0  0  0
  7  8  1  0  0  0  0
  1  9  1  0  0  0  0
  1 10  1  0  0  0  0
  1 11  1  0  0  0  0
  2 12  1  0  0  0  0
  2 13  1  0  0  0  0
  3 14  1  0  0  0  0
  3 15  1  0  0  0  0
  7 16  1  0  0  0  0
  7 17  1  0  0  0  0
  8 18  1  0  0  0  0
  8 19  1  0  0  0  0
  8 20  1  0  0  0  0
M  END
