 xtb: 6.7.1 (edcfbbe)
          04112515533D

 20 19  0     0  0            999 V2000
   -2.5071   -1.0770   -0.6241 C   0  0  0  0  0  0  0  0  0  0  0  0
   -2.0515   -0.5538    0.7327 C   0  0  0  0  0  0  0  0  0  0  0  0
   -1.3895    0.8249    0.6165 C   0  0  0  0  0  0  0  0  0  0  0  0
   -0.1145    0.7524   -0.1833 C   0  0  0  0  0  0  0  0  0  0  0  0
    0.0851    1.3342   -1.2311 O   0  0  0  0  0  0  0  0  0  0  0  0
    0.7874   -0.0285    0.3929 O   0  0  0  0  0  0  0  0  0  0  0  0
    2.0531   -0.1914   -0.2670 C   0  0  0  0  0  0  0  0  0  0  0  0
    2.9652   -0.9861    0.6472 C   0  0  0  0  0  0  0  0  0  0  0  0
   -2.9631   -2.0578   -0.5199 H   0  0  0  0  0  0  0  0  0  0  0  0
   -3.2348   -0.4020   -1.0685 H   0  0  0  0  0  0  0  0  0  0  0  0
   -1.6639   -1.1589   -1.3078 H   0  0  0  0  0  0  0  0  0  0  0  0
   -1.3404   -1.2501    1.1790 H   0  0  0  0  0  0  0  0  0  0  0  0
   -2.9119   -0.4701    1.3972 H   0  0  0  0  0  0  0  0  0  0  0  0
   -1.1380    1.1907    1.6126 H   0  0  0  0  0  0  0  0  0  0  0  0
   -2.0577    1.5323    0.1256 H   0  0  0  0  0  0  0  0  0  0  0  0
    1.8833   -0.7068   -1.2182 H   0  0  0  0  0  0  0  0  0  0  0  0
    2.4591    0.8016   -0.4868 H   0  0  0  0  0  0  0  0  0  0  0  0
    3.9298   -1.1154    0.1676 H   0  0  0  0  0  0  0  0  0  0  0  0
    3.0996   -0.4598    1.5875 H   0  0  0  0  0  0  0  0  0  0  0  0
    2.5317   -1.9608    0.8500 H   0  0  0  0  0  0  0  0  0  0  0  0
  1  2  1  0  0  0  0
  2  3  1  0  0  0  0
  3  4  1  0  0  0  0
  4  5  2  0  0  0  0
  4  6  1  0  0  0  0
  6  7  1  0  0  0  0
  7  8  1  0  0  0  0
  1  9  1  0  0  0  0
  1 10  1  0  0  0  0
  1 11  1  0  0  0  0
  2 12  1  0  0  0  0
  2 13  1  0  0  0  0
  3 14  1  0  0  0  0
  3 15  1  0  0  0  0
  7 16  1  0  0  0  0
  7 17  1  0  0  0  0
  8 18  1  0  0  0  0
  8 19  1  0  0  0  0
  8 20  1  0  0  0  0
M  END
