 xtb: 6.7.1 (edcfbbe)
          04112512253D

 14 13  0     0  0            999 V2000
   -3.2490   -0.6599   -0.5960 C   0  0  0  0  0  0  0  0  0  0  0  0
   -2.5367   -0.1549    0.6538 C   0  0  0  0  0  0  0  0  0  0  0  0
   -1.8161    1.1765    0.4452 C   0  0  0  0  0  0  0  0  0  0  0  0
   -0.6951    1.1385   -0.5718 C   0  0  0  0  0  0  0  0  0  0  0  0
    0.9490   -0.1660    0.0146 I   0  0  0  0  0  0  0  0  0  0  0  0
   -2.5401   -0.9307   -1.3748 H   0  0  0  0  0  0  0  0  0  0  0  0
   -3.8330   -1.5451   -0.3582 H   0  0  0  0  0  0  0  0  0  0  0  0
   -3.9216    0.1003   -0.9873 H   0  0  0  0  0  0  0  0  0  0  0  0
   -1.8201   -0.9070    0.9921 H   0  0  0  0  0  0  0  0  0  0  0  0
   -3.2700   -0.0208    1.4514 H   0  0  0  0  0  0  0  0  0  0  0  0
   -2.5364    1.9196    0.0902 H   0  0  0  0  0  0  0  0  0  0  0  0
   -1.4258    1.5244    1.4044 H   0  0  0  0  0  0  0  0  0  0  0  0
   -0.2450    2.1197   -0.6955 H   0  0  0  0  0  0  0  0  0  0  0  0
   -1.0303    0.7676   -1.5354 H   0  0  0  0  0  0  0  0  0  0  0  0
  1  2  1  0  0  0  0
  2  3  1  0  0  0  0
  3  4  1  0  0  0  0
  4  5  1  0  0  0  0
  1  6  1  0  0  0  0
  1  7  1  0  0  0  0
  1  8  1  0  0  0  0
  2  9  1  0  0  0  0
  2 10  1  0  0  0  0
  3 11  1  0  0  0  0
  3 12  1  0  0  0  0
  4 13  1  0  0  0  0
  4 14  1  0  0  0  0
M  END
