 xtb: 6.7.1 (edcfbbe)
          04112515533D

 20 19  0     0  0            999 V2000
   -2.6684   -1.0218   -0.4417 C   0  0  0  0  0  0  0  0  0  0  0  0
   -2.1846   -0.2809    0.7989 C   0  0  0  0  0  0  0  0  0  0  0  0
   -1.3079    0.9236    0.4348 C   0  0  0  0  0  0  0  0  0  0  0  0
   -0.0334    0.4884   -0.2421 C   0  0  0  0  0  0  0  0  0  0  0  0
    0.2885    0.7911   -1.3729 O   0  0  0  0  0  0  0  0  0  0  0  0
    0.7022   -0.2817    0.5493 O   0  0  0  0  0  0  0  0  0  0  0  0
    1.9552   -0.7771    0.0522 C   0  0  0  0  0  0  0  0  0  0  0  0
    3.0766    0.2198    0.3019 C   0  0  0  0  0  0  0  0  0  0  0  0
   -1.8248   -1.3840   -1.0269 H   0  0  0  0  0  0  0  0  0  0  0  0
   -3.2832   -1.8726   -0.1608 H   0  0  0  0  0  0  0  0  0  0  0  0
   -3.2577   -0.3623   -1.0744 H   0  0  0  0  0  0  0  0  0  0  0  0
   -1.6101   -0.9569    1.4336 H   0  0  0  0  0  0  0  0  0  0  0  0
   -3.0442    0.0754    1.3674 H   0  0  0  0  0  0  0  0  0  0  0  0
   -1.0357    1.4612    1.3438 H   0  0  0  0  0  0  0  0  0  0  0  0
   -1.8382    1.5948   -0.2406 H   0  0  0  0  0  0  0  0  0  0  0  0
    2.1211   -1.7058    0.5991 H   0  0  0  0  0  0  0  0  0  0  0  0
    1.8519   -0.9792   -1.0185 H   0  0  0  0  0  0  0  0  0  0  0  0
    3.1354    0.4593    1.3602 H   0  0  0  0  0  0  0  0  0  0  0  0
    4.0188   -0.2100   -0.0219 H   0  0  0  0  0  0  0  0  0  0  0  0
    2.8939    1.1336   -0.2592 H   0  0  0  0  0  0  0  0  0  0  0  0
  1  2  1  0  0  0  0
  2  3  1  0  0  0  0
  3  4  1  0  0  0  0
  4  5  2  0  0  0  0
  4  6  1  0  0  0  0
  6  7  1  0  0  0  0
  7  8  1  0  0  0  0
  1  9  1  0  0  0  0
  1 10  1  0  0  0  0
  1 11  1  0  0  0  0
  2 12  1  0  0  0  0
  2 13  1  0  0  0  0
  3 14  1  0  0  0  0
  3 15  1  0  0  0  0
  7 16  1  0  0  0  0
  7 17  1  0  0  0  0
  8 18  1  0  0  0  0
  8 19  1  0  0  0  0
  8 20  1  0  0  0  0
M  END
