 xtb: 6.7.1 (edcfbbe)
          04112512263D

 11 10  0     0  0            999 V2000
   -0.0674    1.2418    0.4503 C   0  0  0  0  0  0  0  0  0  0  0  0
   -0.9187    0.6866   -0.6942 C   0  0  0  0  0  0  0  0  0  0  0  0
   -2.0688   -0.5718   -0.1130 Cl  0  0  0  0  0  0  0  0  0  0  0  0
    1.4239    1.0785    0.2062 C   0  0  0  0  0  0  0  0  0  0  0  0
    1.8837   -0.6662    0.1364 Cl  0  0  0  0  0  0  0  0  0  0  0  0
   -0.2665    2.3063    0.5749 H   0  0  0  0  0  0  0  0  0  0  0  0
   -0.3347    0.7424    1.3817 H   0  0  0  0  0  0  0  0  0  0  0  0
   -1.5328    1.4519   -1.1615 H   0  0  0  0  0  0  0  0  0  0  0  0
   -0.3025    0.1928   -1.4433 H   0  0  0  0  0  0  0  0  0  0  0  0
    2.0024    1.5106    1.0196 H   0  0  0  0  0  0  0  0  0  0  0  0
    1.7258    1.5099   -0.7456 H   0  0  0  0  0  0  0  0  0  0  0  0
  1  2  1  0  0  0  0
  2  3  1  0  0  0  0
  1  4  1  0  0  0  0
  4  5  1  0  0  0  0
  1  6  1  0  0  0  0
  1  7  1  0  0  0  0
  2  8  1  0  0  0  0
  2  9  1  0  0  0  0
  4 10  1  0  0  0  0
  4 11  1  0  0  0  0
M  END
