 xtb: 6.7.1 (edcfbbe)
          04112515533D

 20 19  0     0  0            999 V2000
   -3.5121   -0.8268    0.1949 C   0  0  0  0  0  0  0  0  0  0  0  0
   -2.0960   -0.6490   -0.3366 C   0  0  0  0  0  0  0  0  0  0  0  0
   -1.2740    0.2787    0.5655 C   0  0  0  0  0  0  0  0  0  0  0  0
    0.0828    0.5347   -0.0355 C   0  0  0  0  0  0  0  0  0  0  0  0
    0.2725    0.9878   -1.1453 O   0  0  0  0  0  0  0  0  0  0  0  0
    1.0588    0.2038    0.8004 O   0  0  0  0  0  0  0  0  0  0  0  0
    2.4206    0.3691    0.3687 C   0  0  0  0  0  0  0  0  0  0  0  0
    2.9146   -0.8675   -0.3661 C   0  0  0  0  0  0  0  0  0  0  0  0
   -3.4921   -1.2469    1.1972 H   0  0  0  0  0  0  0  0  0  0  0  0
   -4.0288    0.1288    0.2309 H   0  0  0  0  0  0  0  0  0  0  0  0
   -4.0729   -1.4978   -0.4498 H   0  0  0  0  0  0  0  0  0  0  0  0
   -2.1223   -0.2237   -1.3418 H   0  0  0  0  0  0  0  0  0  0  0  0
   -1.6014   -1.6205   -0.3978 H   0  0  0  0  0  0  0  0  0  0  0  0
   -1.1451   -0.1516    1.5576 H   0  0  0  0  0  0  0  0  0  0  0  0
   -1.7875    1.2384    0.6505 H   0  0  0  0  0  0  0  0  0  0  0  0
    2.4761    1.2499   -0.2783 H   0  0  0  0  0  0  0  0  0  0  0  0
    2.9827    0.5367    1.2878 H   0  0  0  0  0  0  0  0  0  0  0  0
    3.9609   -0.7389   -0.6235 H   0  0  0  0  0  0  0  0  0  0  0  0
    2.8044   -1.7460    0.2639 H   0  0  0  0  0  0  0  0  0  0  0  0
    2.3414   -1.0115   -1.2793 H   0  0  0  0  0  0  0  0  0  0  0  0
  1  2  1  0  0  0  0
  2  3  1  0  0  0  0
  3  4  1  0  0  0  0
  4  5  2  0  0  0  0
  4  6  1  0  0  0  0
  6  7  1  0  0  0  0
  7  8  1  0  0  0  0
  1  9  1  0  0  0  0
  1 10  1  0  0  0  0
  1 11  1  0  0  0  0
  2 12  1  0  0  0  0
  2 13  1  0  0  0  0
  3 14  1  0  0  0  0
  3 15  1  0  0  0  0
  7 16  1  0  0  0  0
  7 17  1  0  0  0  0
  8 18  1  0  0  0  0
  8 19  1  0  0  0  0
  8 20  1  0  0  0  0
M  END
