 xtb: 6.7.1 (edcfbbe)
          04112515593D

 20 19  0     0  0            999 V2000
   -3.3323   -0.6672    0.7693 C   0  0  0  0  0  0  0  0  0  0  0  0
   -2.8221    0.1543   -0.4096 C   0  0  0  0  0  0  0  0  0  0  0  0
   -1.4068    0.6895   -0.1967 C   0  0  0  0  0  0  0  0  0  0  0  0
   -0.3572   -0.4185   -0.1161 C   0  0  0  0  0  0  0  0  0  0  0  0
    1.0438    0.1298   -0.1952 C   0  0  0  0  0  0  0  0  0  0  0  0
    1.3637    1.1598   -0.7498 O   0  0  0  0  0  0  0  0  0  0  0  0
    1.9056   -0.6754    0.4181 O   0  0  0  0  0  0  0  0  0  0  0  0
    3.2971   -0.3383    0.4145 C   0  0  0  0  0  0  0  0  0  0  0  0
   -2.7523   -1.5776    0.8918 H   0  0  0  0  0  0  0  0  0  0  0  0
   -3.2703   -0.0899    1.6889 H   0  0  0  0  0  0  0  0  0  0  0  0
   -4.3709   -0.9461    0.6095 H   0  0  0  0  0  0  0  0  0  0  0  0
   -2.8466   -0.4537   -1.3160 H   0  0  0  0  0  0  0  0  0  0  0  0
   -3.4888    1.0049   -0.5641 H   0  0  0  0  0  0  0  0  0  0  0  0
   -1.3744    1.2827    0.7193 H   0  0  0  0  0  0  0  0  0  0  0  0
   -1.1399    1.3506   -1.0241 H   0  0  0  0  0  0  0  0  0  0  0  0
   -0.4771   -1.0978   -0.9644 H   0  0  0  0  0  0  0  0  0  0  0  0
   -0.4437   -1.0027    0.7987 H   0  0  0  0  0  0  0  0  0  0  0  0
    3.8167   -1.0329   -0.2440 H   0  0  0  0  0  0  0  0  0  0  0  0
    3.6536   -0.4453    1.4362 H   0  0  0  0  0  0  0  0  0  0  0  0
    3.4288    0.6851    0.0616 H   0  0  0  0  0  0  0  0  0  0  0  0
  1  2  1  0  0  0  0
  2  3  1  0  0  0  0
  3  4  1  0  0  0  0
  4  5  1  0  0  0  0
  5  6  2  0  0  0  0
  5  7  1  0  0  0  0
  7  8  1  0  0  0  0
  1  9  1  0  0  0  0
  1 10  1  0  0  0  0
  1 11  1  0  0  0  0
  2 12  1  0  0  0  0
  2 13  1  0  0  0  0
  3 14  1  0  0  0  0
  3 15  1  0  0  0  0
  4 16  1  0  0  0  0
  4 17  1  0  0  0  0
  8 18  1  0  0  0  0
  8 19  1  0  0  0  0
  8 20  1  0  0  0  0
M  END
