 xtb: 6.7.1 (edcfbbe)
          04112515593D

 20 19  0     0  0            999 V2000
   -3.4776    0.4218   -0.0322 C   0  0  0  0  0  0  0  0  0  0  0  0
   -2.6070   -0.7318    0.4522 C   0  0  0  0  0  0  0  0  0  0  0  0
   -1.1917   -0.7035   -0.1247 C   0  0  0  0  0  0  0  0  0  0  0  0
   -0.3753    0.4993    0.3729 C   0  0  0  0  0  0  0  0  0  0  0  0
    1.0148    0.4084   -0.1939 C   0  0  0  0  0  0  0  0  0  0  0  0
    1.3547    0.8530   -1.2713 O   0  0  0  0  0  0  0  0  0  0  0  0
    1.8246   -0.2587    0.6190 O   0  0  0  0  0  0  0  0  0  0  0  0
    3.1792   -0.4924    0.2206 C   0  0  0  0  0  0  0  0  0  0  0  0
   -4.4972    0.2951    0.3228 H   0  0  0  0  0  0  0  0  0  0  0  0
   -3.1081    1.3746    0.3366 H   0  0  0  0  0  0  0  0  0  0  0  0
   -3.4942    0.4549   -1.1191 H   0  0  0  0  0  0  0  0  0  0  0  0
   -2.5520   -0.7152    1.5421 H   0  0  0  0  0  0  0  0  0  0  0  0
   -3.0726   -1.6740    0.1567 H   0  0  0  0  0  0  0  0  0  0  0  0
   -1.2394   -0.6720   -1.2154 H   0  0  0  0  0  0  0  0  0  0  0  0
   -0.6721   -1.6196    0.1645 H   0  0  0  0  0  0  0  0  0  0  0  0
   -0.3204    0.4826    1.4605 H   0  0  0  0  0  0  0  0  0  0  0  0
   -0.8281    1.4267    0.0268 H   0  0  0  0  0  0  0  0  0  0  0  0
    3.3424   -1.5683    0.2225 H   0  0  0  0  0  0  0  0  0  0  0  0
    3.8281   -0.0096    0.9489 H   0  0  0  0  0  0  0  0  0  0  0  0
    3.3484   -0.0797   -0.7745 H   0  0  0  0  0  0  0  0  0  0  0  0
  1  2  1  0  0  0  0
  2  3  1  0  0  0  0
  3  4  1  0  0  0  0
  4  5  1  0  0  0  0
  5  6  2  0  0  0  0
  5  7  1  0  0  0  0
  7  8  1  0  0  0  0
  1  9  1  0  0  0  0
  1 10  1  0  0  0  0
  1 11  1  0  0  0  0
  2 12  1  0  0  0  0
  2 13  1  0  0  0  0
  3 14  1  0  0  0  0
  3 15  1  0  0  0  0
  4 16  1  0  0  0  0
  4 17  1  0  0  0  0
  8 18  1  0  0  0  0
  8 19  1  0  0  0  0
  8 20  1  0  0  0  0
M  END
