 xtb: 6.7.1 (edcfbbe)
          04112515593D

 20 19  0     0  0            999 V2000
   -1.8305   -1.2658   -0.3884 C   0  0  0  0  0  0  0  0  0  0  0  0
   -2.4371   -0.0624    0.3231 C   0  0  0  0  0  0  0  0  0  0  0  0
   -1.5873    1.2021    0.2001 C   0  0  0  0  0  0  0  0  0  0  0  0
   -0.2041    1.0610    0.8432 C   0  0  0  0  0  0  0  0  0  0  0  0
    0.7787    0.3724   -0.0664 C   0  0  0  0  0  0  0  0  0  0  0  0
    0.9023    0.5847   -1.2538 O   0  0  0  0  0  0  0  0  0  0  0  0
    1.5420   -0.4940    0.5974 O   0  0  0  0  0  0  0  0  0  0  0  0
    2.5500   -1.1863   -0.1433 C   0  0  0  0  0  0  0  0  0  0  0  0
   -2.5243   -2.1029   -0.3760 H   0  0  0  0  0  0  0  0  0  0  0  0
   -1.6021   -1.0209   -1.4241 H   0  0  0  0  0  0  0  0  0  0  0  0
   -0.9109   -1.5828    0.0982 H   0  0  0  0  0  0  0  0  0  0  0  0
   -3.4198    0.1443   -0.1053 H   0  0  0  0  0  0  0  0  0  0  0  0
   -2.5783   -0.3009    1.3793 H   0  0  0  0  0  0  0  0  0  0  0  0
   -2.1167    2.0256    0.6803 H   0  0  0  0  0  0  0  0  0  0  0  0
   -1.4515    1.4534   -0.8542 H   0  0  0  0  0  0  0  0  0  0  0  0
   -0.2525    0.5189    1.7868 H   0  0  0  0  0  0  0  0  0  0  0  0
    0.2056    2.0555    1.0335 H   0  0  0  0  0  0  0  0  0  0  0  0
    3.0558   -1.8239    0.5747 H   0  0  0  0  0  0  0  0  0  0  0  0
    3.2417   -0.4713   -0.5899 H   0  0  0  0  0  0  0  0  0  0  0  0
    2.0896   -1.7767   -0.9367 H   0  0  0  0  0  0  0  0  0  0  0  0
  1  2  1  0  0  0  0
  2  3  1  0  0  0  0
  3  4  1  0  0  0  0
  4  5  1  0  0  0  0
  5  6  2  0  0  0  0
  5  7  1  0  0  0  0
  7  8  1  0  0  0  0
  1  9  1  0  0  0  0
  1 10  1  0  0  0  0
  1 11  1  0  0  0  0
  2 12  1  0  0  0  0
  2 13  1  0  0  0  0
  3 14  1  0  0  0  0
  3 15  1  0  0  0  0
  4 16  1  0  0  0  0
  4 17  1  0  0  0  0
  8 18  1  0  0  0  0
  8 19  1  0  0  0  0
  8 20  1  0  0  0  0
M  END
