 xtb: 6.7.1 (edcfbbe)
          04112515543D

 31 32  0     0  0            999 V2000
   -3.4941    1.7060   -0.9338 C   0  0  0  0  0  0  0  0  0  0  0  0
   -3.1528    0.2418   -0.6715 C   0  0  0  0  0  0  0  0  0  0  0  0
   -3.5916   -0.3908   -1.4488 H   0  0  0  0  0  0  0  0  0  0  0  0
   -1.6663   -0.0558   -0.5994 C   0  0  0  0  0  0  0  0  0  0  0  0
   -1.2298   -1.3536   -0.9400 C   0  0  0  0  0  0  0  0  0  0  0  0
    0.0894   -1.6946   -0.8705 C   0  0  0  0  0  0  0  0  0  0  0  0
    1.0575   -0.7540   -0.4545 C   0  0  0  0  0  0  0  0  0  0  0  0
    2.4233   -1.0678   -0.3757 C   0  0  0  0  0  0  0  0  0  0  0  0
    3.3455   -0.1304    0.0368 C   0  0  0  0  0  0  0  0  0  0  0  0
    2.9138    1.1649    0.3855 C   0  0  0  0  0  0  0  0  0  0  0  0
    1.5870    1.4884    0.3159 C   0  0  0  0  0  0  0  0  0  0  0  0
    0.6229    0.5506   -0.1017 C   0  0  0  0  0  0  0  0  0  0  0  0
   -0.7489    0.8684   -0.1750 C   0  0  0  0  0  0  0  0  0  0  0  0
    4.6470   -0.5414    0.0774 O   0  0  0  0  0  0  0  0  0  0  0  0
    5.6433    0.3745    0.4915 C   0  0  0  0  0  0  0  0  0  0  0  0
   -3.6924   -0.2491    0.6570 C   0  0  0  0  0  0  0  0  0  0  0  0
   -4.1664   -1.3541    0.8258 O   0  0  0  0  0  0  0  0  0  0  0  0
   -3.5466    0.6207    1.6390 O   0  0  0  0  0  0  0  0  0  0  0  0
   -3.2378    2.3246   -0.0795 H   0  0  0  0  0  0  0  0  0  0  0  0
   -2.9506    2.0558   -1.8069 H   0  0  0  0  0  0  0  0  0  0  0  0
   -4.5605    1.8055   -1.1205 H   0  0  0  0  0  0  0  0  0  0  0  0
   -1.9643   -2.0825   -1.2513 H   0  0  0  0  0  0  0  0  0  0  0  0
    0.4124   -2.6909   -1.1334 H   0  0  0  0  0  0  0  0  0  0  0  0
    2.7669   -2.0560   -0.6400 H   0  0  0  0  0  0  0  0  0  0  0  0
    3.6255    1.9074    0.7083 H   0  0  0  0  0  0  0  0  0  0  0  0
    1.2629    2.4828    0.5844 H   0  0  0  0  0  0  0  0  0  0  0  0
   -1.0552    1.8620    0.1108 H   0  0  0  0  0  0  0  0  0  0  0  0
    5.6936    1.2356   -0.1798 H   0  0  0  0  0  0  0  0  0  0  0  0
    6.5773   -0.1808    0.4420 H   0  0  0  0  0  0  0  0  0  0  0  0
    5.4715    0.7103    1.5174 H   0  0  0  0  0  0  0  0  0  0  0  0
   -3.8525    0.2732    2.4989 H   0  0  0  0  0  0  0  0  0  0  0  0
  1  2  1  0  0  0  0
  2  3  1  0  0  0  0
  2  4  1  0  0  0  0
  4  5  4  0  0  0  0
  5  6  2  0  0  0  0
  6  7  4  0  0  0  0
  7  8  4  0  0  0  0
  8  9  4  0  0  0  0
  9 10  4  0  0  0  0
 10 11  2  0  0  0  0
  7 12  4  0  0  0  0
 11 12  4  0  0  0  0
  4 13  2  0  0  0  0
 12 13  4  0  0  0  0
  9 14  1  0  0  0  0
 14 15  1  0  0  0  0
  2 16  1  0  0  0  0
 16 17  2  0  0  0  0
 16 18  1  0  0  0  0
  1 19  1  0  0  0  0
  1 20  1  0  0  0  0
  1 21  1  0  0  0  0
  5 22  1  0  0  0  0
  6 23  1  0  0  0  0
  8 24  1  0  0  0  0
 10 25  1  0  0  0  0
 11 26  1  0  0  0  0
 13 27  1  0  0  0  0
 15 28  1  0  0  0  0
 15 29  1  0  0  0  0
 15 30  1  0  0  0  0
 18 31  1  0  0  0  0
M  END
