 xtb: 6.7.1 (edcfbbe)
          04112515533D

 20 19  0     0  0            999 V2000
   -3.0104   -0.9047   -0.2729 C   0  0  0  0  0  0  0  0  0  0  0  0
   -2.3422    0.4426   -0.5195 C   0  0  0  0  0  0  0  0  0  0  0  0
   -1.2532    0.7554    0.5120 C   0  0  0  0  0  0  0  0  0  0  0  0
    0.0113   -0.0376    0.2992 C   0  0  0  0  0  0  0  0  0  0  0  0
    0.0797   -1.1865   -0.0817 O   0  0  0  0  0  0  0  0  0  0  0  0
    1.0806    0.6936    0.6042 O   0  0  0  0  0  0  0  0  0  0  0  0
    2.3806    0.0967    0.4643 C   0  0  0  0  0  0  0  0  0  0  0  0
    2.8979    0.2384   -0.9591 C   0  0  0  0  0  0  0  0  0  0  0  0
   -2.2701   -1.6999   -0.2952 H   0  0  0  0  0  0  0  0  0  0  0  0
   -3.5022   -0.9149    0.6969 H   0  0  0  0  0  0  0  0  0  0  0  0
   -3.7544   -1.1027   -1.0399 H   0  0  0  0  0  0  0  0  0  0  0  0
   -3.0933    1.2325   -0.4747 H   0  0  0  0  0  0  0  0  0  0  0  0
   -1.9025    0.4516   -1.5187 H   0  0  0  0  0  0  0  0  0  0  0  0
   -1.6214    0.5158    1.5124 H   0  0  0  0  0  0  0  0  0  0  0  0
   -0.9845    1.8115    0.4927 H   0  0  0  0  0  0  0  0  0  0  0  0
    3.0091    0.6384    1.1715 H   0  0  0  0  0  0  0  0  0  0  0  0
    2.3127   -0.9586    0.7457 H   0  0  0  0  0  0  0  0  0  0  0  0
    2.2597   -0.3161   -1.6435 H   0  0  0  0  0  0  0  0  0  0  0  0
    2.9060    1.2850   -1.2514 H   0  0  0  0  0  0  0  0  0  0  0  0
    3.9059   -0.1588   -1.0175 H   0  0  0  0  0  0  0  0  0  0  0  0
  1  2  1  0  0  0  0
  2  3  1  0  0  0  0
  3  4  1  0  0  0  0
  4  5  2  0  0  0  0
  4  6  1  0  0  0  0
  6  7  1  0  0  0  0
  7  8  1  0  0  0  0
  1  9  1  0  0  0  0
  1 10  1  0  0  0  0
  1 11  1  0  0  0  0
  2 12  1  0  0  0  0
  2 13  1  0  0  0  0
  3 14  1  0  0  0  0
  3 15  1  0  0  0  0
  7 16  1  0  0  0  0
  7 17  1  0  0  0  0
  8 18  1  0  0  0  0
  8 19  1  0  0  0  0
  8 20  1  0  0  0  0
M  END
