 xtb: 6.7.1 (edcfbbe)
          04112515553D

 17 16  0     0  0            999 V2000
    1.0364   -1.6527    0.4085 C   0  0  0  0  0  0  0  0  0  0  0  0
    0.5706   -0.8276   -0.6697 O   0  0  0  0  0  0  0  0  0  0  0  0
   -0.1670    0.2863   -0.2771 C   0  0  0  0  0  0  0  0  0  0  0  0
    0.5409    1.1383    0.5510 O   0  0  0  0  0  0  0  0  0  0  0  0
    1.6122    1.8192   -0.0977 C   0  0  0  0  0  0  0  0  0  0  0  0
   -1.3032   -0.0434    0.4395 O   0  0  0  0  0  0  0  0  0  0  0  0
   -2.3080   -0.6939   -0.3348 C   0  0  0  0  0  0  0  0  0  0  0  0
    0.6240   -2.6521    0.2748 H   0  0  0  0  0  0  0  0  0  0  0  0
    0.7105   -1.2362    1.3612 H   0  0  0  0  0  0  0  0  0  0  0  0
    2.1246   -1.6861    0.3660 H   0  0  0  0  0  0  0  0  0  0  0  0
   -0.4254    0.7800   -1.2385 H   0  0  0  0  0  0  0  0  0  0  0  0
    2.3088    1.1061   -0.5435 H   0  0  0  0  0  0  0  0  0  0  0  0
    2.1002    2.3917    0.6849 H   0  0  0  0  0  0  0  0  0  0  0  0
    1.2213    2.4836   -0.8730 H   0  0  0  0  0  0  0  0  0  0  0  0
   -2.6804   -0.0199   -1.1108 H   0  0  0  0  0  0  0  0  0  0  0  0
   -3.0968   -0.9370    0.3702 H   0  0  0  0  0  0  0  0  0  0  0  0
   -1.9122   -1.6010   -0.7965 H   0  0  0  0  0  0  0  0  0  0  0  0
  1  2  1  0  0  0  0
  2  3  1  0  0  0  0
  3  4  1  0  0  0  0
  4  5  1  0  0  0  0
  3  6  1  0  0  0  0
  6  7  1  0  0  0  0
  1  8  1  0  0  0  0
  1  9  1  0  0  0  0
  1 10  1  0  0  0  0
  3 11  1  0  0  0  0
  5 12  1  0  0  0  0
  5 13  1  0  0  0  0
  5 14  1  0  0  0  0
  7 15  1  0  0  0  0
  7 16  1  0  0  0  0
  7 17  1  0  0  0  0
M  END
