 xtb: 6.7.1 (edcfbbe)
          04112515533D

 20 19  0     0  0            999 V2000
   -3.4431   -0.9593    0.3002 C   0  0  0  0  0  0  0  0  0  0  0  0
   -2.1012   -0.6064   -0.3281 C   0  0  0  0  0  0  0  0  0  0  0  0
   -1.2911    0.3276    0.5837 C   0  0  0  0  0  0  0  0  0  0  0  0
    0.0143    0.6616   -0.0860 C   0  0  0  0  0  0  0  0  0  0  0  0
    0.1925    1.6091   -0.8252 O   0  0  0  0  0  0  0  0  0  0  0  0
    0.9499   -0.2306    0.2012 O   0  0  0  0  0  0  0  0  0  0  0  0
    2.2542   -0.0834   -0.3865 C   0  0  0  0  0  0  0  0  0  0  0  0
    3.2786   -0.6880    0.5559 C   0  0  0  0  0  0  0  0  0  0  0  0
   -4.0011   -1.6206   -0.3570 H   0  0  0  0  0  0  0  0  0  0  0  0
   -3.2966   -1.4610    1.2530 H   0  0  0  0  0  0  0  0  0  0  0  0
   -4.0328   -0.0620    0.4687 H   0  0  0  0  0  0  0  0  0  0  0  0
   -2.2592   -0.1135   -1.2897 H   0  0  0  0  0  0  0  0  0  0  0  0
   -1.5254   -1.5168   -0.5049 H   0  0  0  0  0  0  0  0  0  0  0  0
   -1.0893   -0.1693    1.5316 H   0  0  0  0  0  0  0  0  0  0  0  0
   -1.8454    1.2508    0.7499 H   0  0  0  0  0  0  0  0  0  0  0  0
    2.2461   -0.6019   -1.3502 H   0  0  0  0  0  0  0  0  0  0  0  0
    2.4367    0.9815   -0.5633 H   0  0  0  0  0  0  0  0  0  0  0  0
    3.0439   -1.7328    0.7358 H   0  0  0  0  0  0  0  0  0  0  0  0
    4.2647   -0.6130    0.1094 H   0  0  0  0  0  0  0  0  0  0  0  0
    3.2746   -0.1593    1.5048 H   0  0  0  0  0  0  0  0  0  0  0  0
  1  2  1  0  0  0  0
  2  3  1  0  0  0  0
  3  4  1  0  0  0  0
  4  5  2  0  0  0  0
  4  6  1  0  0  0  0
  6  7  1  0  0  0  0
  7  8  1  0  0  0  0
  1  9  1  0  0  0  0
  1 10  1  0  0  0  0
  1 11  1  0  0  0  0
  2 12  1  0  0  0  0
  2 13  1  0  0  0  0
  3 14  1  0  0  0  0
  3 15  1  0  0  0  0
  7 16  1  0  0  0  0
  7 17  1  0  0  0  0
  8 18  1  0  0  0  0
  8 19  1  0  0  0  0
  8 20  1  0  0  0  0
M  END
