 xtb: 6.7.1 (edcfbbe)
          04112515553D

 17 16  0     0  0            999 V2000
    1.5536   -1.7051    0.2493 C   0  0  0  0  0  0  0  0  0  0  0  0
    0.2948   -1.0544    0.3799 O   0  0  0  0  0  0  0  0  0  0  0  0
    0.0237   -0.1428   -0.6287 C   0  0  0  0  0  0  0  0  0  0  0  0
    0.8494    0.9812   -0.5638 O   0  0  0  0  0  0  0  0  0  0  0  0
    0.6721    1.8211    0.5794 C   0  0  0  0  0  0  0  0  0  0  0  0
   -1.3228    0.1832   -0.6349 O   0  0  0  0  0  0  0  0  0  0  0  0
   -2.0866   -0.0788    0.5478 C   0  0  0  0  0  0  0  0  0  0  0  0
    1.5702   -2.3124   -0.6594 H   0  0  0  0  0  0  0  0  0  0  0  0
    1.6436   -2.3335    1.1305 H   0  0  0  0  0  0  0  0  0  0  0  0
    2.3633   -0.9734    0.2143 H   0  0  0  0  0  0  0  0  0  0  0  0
    0.2612   -0.5657   -1.6242 H   0  0  0  0  0  0  0  0  0  0  0  0
    0.7477    1.2365    1.4991 H   0  0  0  0  0  0  0  0  0  0  0  0
   -0.2928    2.3291    0.5288 H   0  0  0  0  0  0  0  0  0  0  0  0
    1.4799    2.5451    0.5249 H   0  0  0  0  0  0  0  0  0  0  0  0
   -3.0685    0.3283    0.3230 H   0  0  0  0  0  0  0  0  0  0  0  0
   -1.6602    0.4116    1.4225 H   0  0  0  0  0  0  0  0  0  0  0  0
   -2.1494   -1.1529    0.7268 H   0  0  0  0  0  0  0  0  0  0  0  0
  1  2  1  0  0  0  0
  2  3  1  0  0  0  0
  3  4  1  0  0  0  0
  4  5  1  0  0  0  0
  3  6  1  0  0  0  0
  6  7  1  0  0  0  0
  1  8  1  0  0  0  0
  1  9  1  0  0  0  0
  1 10  1  0  0  0  0
  3 11  1  0  0  0  0
  5 12  1  0  0  0  0
  5 13  1  0  0  0  0
  5 14  1  0  0  0  0
  7 15  1  0  0  0  0
  7 16  1  0  0  0  0
  7 17  1  0  0  0  0
M  END
