 xtb: 6.7.1 (edcfbbe)
          04112515563D

 33 35  0     0  0            999 V2000
   -4.5692   -1.1088    0.1919 C   0  0  0  0  0  0  0  0  0  0  0  0
   -3.8302   -2.2667   -0.0080 C   0  0  0  0  0  0  0  0  0  0  0  0
   -2.4570   -2.1953   -0.1526 C   0  0  0  0  0  0  0  0  0  0  0  0
   -1.7982   -0.9686   -0.1010 C   0  0  0  0  0  0  0  0  0  0  0  0
   -2.5450    0.1977    0.1004 C   0  0  0  0  0  0  0  0  0  0  0  0
   -3.9287    0.1147    0.2457 C   0  0  0  0  0  0  0  0  0  0  0  0
   -1.8877    1.5090    0.1619 C   0  0  0  0  0  0  0  0  0  0  0  0
   -2.5292    2.5413    0.3477 O   0  0  0  0  0  0  0  0  0  0  0  0
   -0.4243    1.5286   -0.0097 C   0  0  0  0  0  0  0  0  0  0  0  0
    0.1957    2.7645    0.0491 C   0  0  0  0  0  0  0  0  0  0  0  0
    1.5764    2.8676   -0.0991 C   0  0  0  0  0  0  0  0  0  0  0  0
    2.3325    1.7457   -0.3077 C   0  0  0  0  0  0  0  0  0  0  0  0
    1.7428    0.4600   -0.3841 C   0  0  0  0  0  0  0  0  0  0  0  0
    0.3264    0.3480   -0.2228 C   0  0  0  0  0  0  0  0  0  0  0  0
   -0.3316   -0.9401   -0.2632 C   0  0  0  0  0  0  0  0  0  0  0  0
    0.2760   -2.0145   -0.4204 O   0  0  0  0  0  0  0  0  0  0  0  0
    2.4887   -0.6290   -0.6144 N   0  0  0  0  0  0  0  0  0  0  0  0
    3.9233   -0.6734   -0.7463 C   0  0  0  0  0  0  0  0  0  0  0  0
    4.6431   -0.6484    0.6159 C   0  0  0  0  0  0  0  0  0  0  0  0
    4.5510   -1.8740    1.3053 O   0  0  0  0  0  0  0  0  0  0  0  0
   -5.6405   -1.1617    0.3054 H   0  0  0  0  0  0  0  0  0  0  0  0
   -4.3253   -3.2240   -0.0508 H   0  0  0  0  0  0  0  0  0  0  0  0
   -1.8650   -3.0849   -0.3090 H   0  0  0  0  0  0  0  0  0  0  0  0
   -4.4780    1.0316    0.4006 H   0  0  0  0  0  0  0  0  0  0  0  0
   -0.4166    3.6375    0.2146 H   0  0  0  0  0  0  0  0  0  0  0  0
    2.0485    3.8360   -0.0465 H   0  0  0  0  0  0  0  0  0  0  0  0
    3.3997    1.8405   -0.4150 H   0  0  0  0  0  0  0  0  0  0  0  0
    1.9747   -1.5073   -0.6327 H   0  0  0  0  0  0  0  0  0  0  0  0
    4.2774    0.1612   -1.3540 H   0  0  0  0  0  0  0  0  0  0  0  0
    4.1816   -1.6043   -1.2526 H   0  0  0  0  0  0  0  0  0  0  0  0
    4.2462    0.1677    1.2328 H   0  0  0  0  0  0  0  0  0  0  0  0
    5.7107   -0.4865    0.4568 H   0  0  0  0  0  0  0  0  0  0  0  0
    3.6234   -2.0631    1.5009 H   0  0  0  0  0  0  0  0  0  0  0  0
  1  2  4  0  0  0  0
  2  3  4  0  0  0  0
  3  4  4  0  0  0  0
  4  5  4  0  0  0  0
  1  6  4  0  0  0  0
  5  6  4  0  0  0  0
  5  7  1  0  0  0  0
  7  8  2  0  0  0  0
  7  9  1  0  0  0  0
  9 10  4  0  0  0  0
 10 11  4  0  0  0  0
 11 12  2  0  0  0  0
 12 13  4  0  0  0  0
  9 14  4  0  0  0  0
 13 14  4  0  0  0  0
  4 15  1  0  0  0  0
 14 15  1  0  0  0  0
 15 16  2  0  0  0  0
 13 17  4  0  0  0  0
 17 18  1  0  0  0  0
 18 19  1  0  0  0  0
 19 20  1  0  0  0  0
  1 21  1  0  0  0  0
  2 22  1  0  0  0  0
  3 23  1  0  0  0  0
  6 24  1  0  0  0  0
 10 25  1  0  0  0  0
 11 26  1  0  0  0  0
 12 27  1  0  0  0  0
 17 28  1  0  0  0  0
 18 29  1  0  0  0  0
 18 30  1  0  0  0  0
 19 31  1  0  0  0  0
 19 32  1  0  0  0  0
 20 33  1  0  0  0  0
M  END
