 xtb: 6.7.1 (edcfbbe)
          04112515563D

 33 35  0     0  0            999 V2000
   -4.6203   -1.1639   -0.0567 C   0  0  0  0  0  0  0  0  0  0  0  0
   -3.8278   -2.3014   -0.1238 C   0  0  0  0  0  0  0  0  0  0  0  0
   -2.4501   -2.1860   -0.1272 C   0  0  0  0  0  0  0  0  0  0  0  0
   -1.8398   -0.9350   -0.0631 C   0  0  0  0  0  0  0  0  0  0  0  0
   -2.6405    0.2109    0.0040 C   0  0  0  0  0  0  0  0  0  0  0  0
   -4.0284    0.0834    0.0062 C   0  0  0  0  0  0  0  0  0  0  0  0
   -2.0366    1.5477    0.0720 C   0  0  0  0  0  0  0  0  0  0  0  0
   -2.7279    2.5631    0.1215 O   0  0  0  0  0  0  0  0  0  0  0  0
   -0.5646    1.6128    0.0793 C   0  0  0  0  0  0  0  0  0  0  0  0
    0.0075    2.8710    0.1572 C   0  0  0  0  0  0  0  0  0  0  0  0
    1.3925    3.0167    0.1732 C   0  0  0  0  0  0  0  0  0  0  0  0
    2.2010    1.9137    0.1099 C   0  0  0  0  0  0  0  0  0  0  0  0
    1.6606    0.6070    0.0265 C   0  0  0  0  0  0  0  0  0  0  0  0
    0.2404    0.4514    0.0116 C   0  0  0  0  0  0  0  0  0  0  0  0
   -0.3654   -0.8600   -0.0682 C   0  0  0  0  0  0  0  0  0  0  0  0
    0.2907   -1.9145   -0.1393 O   0  0  0  0  0  0  0  0  0  0  0  0
    2.4671   -0.4580   -0.0405 N   0  0  0  0  0  0  0  0  0  0  0  0
    3.9077   -0.4295   -0.0180 C   0  0  0  0  0  0  0  0  0  0  0  0
    4.4476   -1.8642   -0.0694 C   0  0  0  0  0  0  0  0  0  0  0  0
    5.8510   -1.9099    0.0189 O   0  0  0  0  0  0  0  0  0  0  0  0
   -5.6954   -1.2510   -0.0536 H   0  0  0  0  0  0  0  0  0  0  0  0
   -4.2848   -3.2773   -0.1732 H   0  0  0  0  0  0  0  0  0  0  0  0
   -1.8161   -3.0587   -0.1789 H   0  0  0  0  0  0  0  0  0  0  0  0
   -4.6201    0.9853    0.0587 H   0  0  0  0  0  0  0  0  0  0  0  0
   -0.6461    3.7282    0.2059 H   0  0  0  0  0  0  0  0  0  0  0  0
    1.8249    4.0028    0.2356 H   0  0  0  0  0  0  0  0  0  0  0  0
    3.2708    2.0344    0.1242 H   0  0  0  0  0  0  0  0  0  0  0  0
    2.0032   -1.3622   -0.0914 H   0  0  0  0  0  0  0  0  0  0  0  0
    4.2724    0.0487    0.8987 H   0  0  0  0  0  0  0  0  0  0  0  0
    4.2869    0.1348   -0.8792 H   0  0  0  0  0  0  0  0  0  0  0  0
    4.0970   -2.3603   -0.9833 H   0  0  0  0  0  0  0  0  0  0  0  0
    4.0806   -2.4266    0.7924 H   0  0  0  0  0  0  0  0  0  0  0  0
    6.2389   -1.4932   -0.7634 H   0  0  0  0  0  0  0  0  0  0  0  0
  1  2  4  0  0  0  0
  2  3  4  0  0  0  0
  3  4  4  0  0  0  0
  4  5  4  0  0  0  0
  1  6  4  0  0  0  0
  5  6  4  0  0  0  0
  5  7  1  0  0  0  0
  7  8  2  0  0  0  0
  7  9  1  0  0  0  0
  9 10  4  0  0  0  0
 10 11  4  0  0  0  0
 11 12  2  0  0  0  0
 12 13  4  0  0  0  0
  9 14  4  0  0  0  0
 13 14  4  0  0  0  0
  4 15  1  0  0  0  0
 14 15  1  0  0  0  0
 15 16  2  0  0  0  0
 13 17  4  0  0  0  0
 17 18  1  0  0  0  0
 18 19  1  0  0  0  0
 19 20  1  0  0  0  0
  1 21  1  0  0  0  0
  2 22  1  0  0  0  0
  3 23  1  0  0  0  0
  6 24  1  0  0  0  0
 10 25  1  0  0  0  0
 11 26  1  0  0  0  0
 12 27  1  0  0  0  0
 17 28  1  0  0  0  0
 18 29  1  0  0  0  0
 18 30  1  0  0  0  0
 19 31  1  0  0  0  0
 19 32  1  0  0  0  0
 20 33  1  0  0  0  0
M  END
