 xtb: 6.7.1 (edcfbbe)
          04112515593D

 20 19  0     0  0            999 V2000
   -1.7309   -1.3497    0.3549 C   0  0  0  0  0  0  0  0  0  0  0  0
   -2.3772   -0.0190   -0.0105 C   0  0  0  0  0  0  0  0  0  0  0  0
   -1.4349    0.9299   -0.7506 C   0  0  0  0  0  0  0  0  0  0  0  0
   -0.2745    1.4308    0.1162 C   0  0  0  0  0  0  0  0  0  0  0  0
    0.8120    0.4132    0.3414 C   0  0  0  0  0  0  0  0  0  0  0  0
    1.3454    0.2004    1.4129 O   0  0  0  0  0  0  0  0  0  0  0  0
    1.1729   -0.2021   -0.7784 O   0  0  0  0  0  0  0  0  0  0  0  0
    2.2175   -1.1717   -0.6914 C   0  0  0  0  0  0  0  0  0  0  0  0
   -0.9200   -1.2071    1.0666 H   0  0  0  0  0  0  0  0  0  0  0  0
   -2.4624   -2.0125    0.8111 H   0  0  0  0  0  0  0  0  0  0  0  0
   -1.3317   -1.8356   -0.5328 H   0  0  0  0  0  0  0  0  0  0  0  0
   -3.2407   -0.2117   -0.6503 H   0  0  0  0  0  0  0  0  0  0  0  0
   -2.7390    0.4675    0.8978 H   0  0  0  0  0  0  0  0  0  0  0  0
   -2.0078    1.7981   -1.0792 H   0  0  0  0  0  0  0  0  0  0  0  0
   -1.0318    0.4342   -1.6343 H   0  0  0  0  0  0  0  0  0  0  0  0
   -0.6300    1.7648    1.0916 H   0  0  0  0  0  0  0  0  0  0  0  0
    0.2022    2.2762   -0.3852 H   0  0  0  0  0  0  0  0  0  0  0  0
    2.4414   -1.4554   -1.7149 H   0  0  0  0  0  0  0  0  0  0  0  0
    1.8786   -2.0327   -0.1135 H   0  0  0  0  0  0  0  0  0  0  0  0
    3.0911   -0.7390   -0.2022 H   0  0  0  0  0  0  0  0  0  0  0  0
  1  2  1  0  0  0  0
  2  3  1  0  0  0  0
  3  4  1  0  0  0  0
  4  5  1  0  0  0  0
  5  6  2  0  0  0  0
  5  7  1  0  0  0  0
  7  8  1  0  0  0  0
  1  9  1  0  0  0  0
  1 10  1  0  0  0  0
  1 11  1  0  0  0  0
  2 12  1  0  0  0  0
  2 13  1  0  0  0  0
  3 14  1  0  0  0  0
  3 15  1  0  0  0  0
  4 16  1  0  0  0  0
  4 17  1  0  0  0  0
  8 18  1  0  0  0  0
  8 19  1  0  0  0  0
  8 20  1  0  0  0  0
M  END
