 xtb: 6.7.1 (edcfbbe)
          04112515533D

 20 19  0     0  0            999 V2000
   -3.4131   -0.9882    0.3281 C   0  0  0  0  0  0  0  0  0  0  0  0
   -2.0687   -0.3285    0.6070 C   0  0  0  0  0  0  0  0  0  0  0  0
   -1.2977   -0.0685   -0.6961 C   0  0  0  0  0  0  0  0  0  0  0  0
    0.0090    0.6024   -0.3712 C   0  0  0  0  0  0  0  0  0  0  0  0
    0.1864    1.8039   -0.3421 O   0  0  0  0  0  0  0  0  0  0  0  0
    0.9526   -0.2799   -0.0790 O   0  0  0  0  0  0  0  0  0  0  0  0
    2.2496    0.2118    0.3000 C   0  0  0  0  0  0  0  0  0  0  0  0
    3.2370   -0.9361    0.2131 C   0  0  0  0  0  0  0  0  0  0  0  0
   -3.9432   -1.1649    1.2599 H   0  0  0  0  0  0  0  0  0  0  0  0
   -4.0269   -0.3503   -0.3026 H   0  0  0  0  0  0  0  0  0  0  0  0
   -3.2721   -1.9405   -0.1762 H   0  0  0  0  0  0  0  0  0  0  0  0
   -1.4679   -0.9724    1.2519 H   0  0  0  0  0  0  0  0  0  0  0  0
   -2.2217    0.6212    1.1241 H   0  0  0  0  0  0  0  0  0  0  0  0
   -1.8775    0.5892   -1.3429 H   0  0  0  0  0  0  0  0  0  0  0  0
   -1.0984   -1.0141   -1.1983 H   0  0  0  0  0  0  0  0  0  0  0  0
    2.5171    1.0355   -0.3699 H   0  0  0  0  0  0  0  0  0  0  0  0
    2.1801    0.6069    1.3187 H   0  0  0  0  0  0  0  0  0  0  0  0
    4.2193   -0.5883    0.5149 H   0  0  0  0  0  0  0  0  0  0  0  0
    2.9244   -1.7436    0.8682 H   0  0  0  0  0  0  0  0  0  0  0  0
    3.2864   -1.3103   -0.8053 H   0  0  0  0  0  0  0  0  0  0  0  0
  1  2  1  0  0  0  0
  2  3  1  0  0  0  0
  3  4  1  0  0  0  0
  4  5  2  0  0  0  0
  4  6  1  0  0  0  0
  6  7  1  0  0  0  0
  7  8  1  0  0  0  0
  1  9  1  0  0  0  0
  1 10  1  0  0  0  0
  1 11  1  0  0  0  0
  2 12  1  0  0  0  0
  2 13  1  0  0  0  0
  3 14  1  0  0  0  0
  3 15  1  0  0  0  0
  7 16  1  0  0  0  0
  7 17  1  0  0  0  0
  8 18  1  0  0  0  0
  8 19  1  0  0  0  0
  8 20  1  0  0  0  0
M  END
