 xtb: 6.7.1 (edcfbbe)
          04112515563D

 33 35  0     0  0            999 V2000
   -4.4178   -1.2848    0.1427 C   0  0  0  0  0  0  0  0  0  0  0  0
   -3.5938   -2.3833   -0.0610 C   0  0  0  0  0  0  0  0  0  0  0  0
   -2.2306   -2.2083   -0.2101 C   0  0  0  0  0  0  0  0  0  0  0  0
   -1.6655   -0.9361   -0.1518 C   0  0  0  0  0  0  0  0  0  0  0  0
   -2.4972    0.1695    0.0558 C   0  0  0  0  0  0  0  0  0  0  0  0
   -3.8713   -0.0168    0.1979 C   0  0  0  0  0  0  0  0  0  0  0  0
   -1.9379    1.5247    0.1236 C   0  0  0  0  0  0  0  0  0  0  0  0
   -2.6592    2.5122    0.2529 O   0  0  0  0  0  0  0  0  0  0  0  0
   -0.4712    1.6432    0.0449 C   0  0  0  0  0  0  0  0  0  0  0  0
    0.0597    2.9120    0.1992 C   0  0  0  0  0  0  0  0  0  0  0  0
    1.4367    3.1091    0.1423 C   0  0  0  0  0  0  0  0  0  0  0  0
    2.2760    2.0477   -0.0617 C   0  0  0  0  0  0  0  0  0  0  0  0
    1.7828    0.7289   -0.2210 C   0  0  0  0  0  0  0  0  0  0  0  0
    0.3673    0.5241   -0.1721 C   0  0  0  0  0  0  0  0  0  0  0  0
   -0.2049   -0.7970   -0.3248 C   0  0  0  0  0  0  0  0  0  0  0  0
    0.4643   -1.8109   -0.5879 O   0  0  0  0  0  0  0  0  0  0  0  0
    2.6063   -0.3000   -0.4544 N   0  0  0  0  0  0  0  0  0  0  0  0
    4.0366   -0.3630   -0.3037 C   0  0  0  0  0  0  0  0  0  0  0  0
    4.4059   -1.3786    0.7915 C   0  0  0  0  0  0  0  0  0  0  0  0
    3.9375   -2.6765    0.5132 O   0  0  0  0  0  0  0  0  0  0  0  0
   -5.4819   -1.4188    0.2574 H   0  0  0  0  0  0  0  0  0  0  0  0
   -4.0155   -3.3752   -0.1044 H   0  0  0  0  0  0  0  0  0  0  0  0
   -1.5728   -3.0492   -0.3731 H   0  0  0  0  0  0  0  0  0  0  0  0
   -4.4880    0.8560    0.3536 H   0  0  0  0  0  0  0  0  0  0  0  0
   -0.6185    3.7359    0.3596 H   0  0  0  0  0  0  0  0  0  0  0  0
    1.8392    4.1034    0.2555 H   0  0  0  0  0  0  0  0  0  0  0  0
    3.3367    2.2247   -0.1194 H   0  0  0  0  0  0  0  0  0  0  0  0
    2.1487   -1.2097   -0.5279 H   0  0  0  0  0  0  0  0  0  0  0  0
    4.4537    0.6036   -0.0309 H   0  0  0  0  0  0  0  0  0  0  0  0
    4.4734   -0.6821   -1.2560 H   0  0  0  0  0  0  0  0  0  0  0  0
    3.9291   -1.0933    1.7322 H   0  0  0  0  0  0  0  0  0  0  0  0
    5.4937   -1.3776    0.9324 H   0  0  0  0  0  0  0  0  0  0  0  0
    4.3823   -3.0175   -0.2755 H   0  0  0  0  0  0  0  0  0  0  0  0
  1  2  4  0  0  0  0
  2  3  4  0  0  0  0
  3  4  4  0  0  0  0
  4  5  4  0  0  0  0
  1  6  4  0  0  0  0
  5  6  4  0  0  0  0
  5  7  1  0  0  0  0
  7  8  2  0  0  0  0
  7  9  1  0  0  0  0
  9 10  4  0  0  0  0
 10 11  4  0  0  0  0
 11 12  2  0  0  0  0
 12 13  4  0  0  0  0
  9 14  4  0  0  0  0
 13 14  4  0  0  0  0
  4 15  1  0  0  0  0
 14 15  1  0  0  0  0
 15 16  2  0  0  0  0
 13 17  4  0  0  0  0
 17 18  1  0  0  0  0
 18 19  1  0  0  0  0
 19 20  1  0  0  0  0
  1 21  1  0  0  0  0
  2 22  1  0  0  0  0
  3 23  1  0  0  0  0
  6 24  1  0  0  0  0
 10 25  1  0  0  0  0
 11 26  1  0  0  0  0
 12 27  1  0  0  0  0
 17 28  1  0  0  0  0
 18 29  1  0  0  0  0
 18 30  1  0  0  0  0
 19 31  1  0  0  0  0
 19 32  1  0  0  0  0
 20 33  1  0  0  0  0
M  END
