 xtb: 6.7.1 (edcfbbe)
          04112515543D

 17 16  0     0  0            999 V2000
    1.9521   -1.0663   -0.4735 C   0  0  0  0  0  0  0  0  0  0  0  0
    1.7910    0.0512    0.5518 C   0  0  0  0  0  0  0  0  0  0  0  0
    1.2222    1.3469   -0.0432 C   0  0  0  0  0  0  0  0  0  0  0  0
   -0.2871    1.5410    0.1266 C   0  0  0  0  0  0  0  0  0  0  0  0
   -1.1650    0.5776   -0.6576 C   0  0  0  0  0  0  0  0  0  0  0  0
   -1.4499   -0.9680    0.2239 Cl  0  0  0  0  0  0  0  0  0  0  0  0
    2.4036   -1.9399   -0.0080 H   0  0  0  0  0  0  0  0  0  0  0  0
    2.5954   -0.7437   -1.2896 H   0  0  0  0  0  0  0  0  0  0  0  0
    0.9930   -1.3655   -0.8856 H   0  0  0  0  0  0  0  0  0  0  0  0
    1.1489   -0.2922    1.3646 H   0  0  0  0  0  0  0  0  0  0  0  0
    2.7733    0.2601    0.9809 H   0  0  0  0  0  0  0  0  0  0  0  0
    1.4719    1.3953   -1.1046 H   0  0  0  0  0  0  0  0  0  0  0  0
    1.7049    2.1964    0.4435 H   0  0  0  0  0  0  0  0  0  0  0  0
   -0.5339    2.5460   -0.2230 H   0  0  0  0  0  0  0  0  0  0  0  0
   -0.5473    1.4877    1.1851 H   0  0  0  0  0  0  0  0  0  0  0  0
   -2.1576    0.9954   -0.8153 H   0  0  0  0  0  0  0  0  0  0  0  0
   -0.7176    0.3104   -1.6130 H   0  0  0  0  0  0  0  0  0  0  0  0
  1  2  1  0  0  0  0
  2  3  1  0  0  0  0
  3  4  1  0  0  0  0
  4  5  1  0  0  0  0
  5  6  1  0  0  0  0
  1  7  1  0  0  0  0
  1  8  1  0  0  0  0
  1  9  1  0  0  0  0
  2 10  1  0  0  0  0
  2 11  1  0  0  0  0
  3 12  1  0  0  0  0
  3 13  1  0  0  0  0
  4 14  1  0  0  0  0
  4 15  1  0  0  0  0
  5 16  1  0  0  0  0
  5 17  1  0  0  0  0
M  END
