 xtb: 6.7.1 (edcfbbe)
          04112515533D

 20 19  0     0  0            999 V2000
   -3.6310   -0.5013    0.3573 C   0  0  0  0  0  0  0  0  0  0  0  0
   -2.2637   -0.4717   -0.3130 C   0  0  0  0  0  0  0  0  0  0  0  0
   -1.2139    0.1865    0.5919 C   0  0  0  0  0  0  0  0  0  0  0  0
    0.1023    0.2777   -0.1332 C   0  0  0  0  0  0  0  0  0  0  0  0
    0.3001    0.9530   -1.1223 O   0  0  0  0  0  0  0  0  0  0  0  0
    1.0213   -0.5028    0.4203 O   0  0  0  0  0  0  0  0  0  0  0  0
    2.3351   -0.5390   -0.1635 C   0  0  0  0  0  0  0  0  0  0  0  0
    3.2098    0.5781    0.3846 C   0  0  0  0  0  0  0  0  0  0  0  0
   -4.3561   -0.9821   -0.2932 H   0  0  0  0  0  0  0  0  0  0  0  0
   -3.5843   -1.0547    1.2916 H   0  0  0  0  0  0  0  0  0  0  0  0
   -3.9736    0.5080    0.5699 H   0  0  0  0  0  0  0  0  0  0  0  0
   -2.3173    0.0871   -1.2495 H   0  0  0  0  0  0  0  0  0  0  0  0
   -1.9464   -1.4898   -0.5477 H   0  0  0  0  0  0  0  0  0  0  0  0
   -1.0766   -0.3904    1.5052 H   0  0  0  0  0  0  0  0  0  0  0  0
   -1.5391    1.1982    0.8381 H   0  0  0  0  0  0  0  0  0  0  0  0
    2.7279   -1.5198    0.1057 H   0  0  0  0  0  0  0  0  0  0  0  0
    2.2358   -0.4526   -1.2498 H   0  0  0  0  0  0  0  0  0  0  0  0
    2.8018    1.5448    0.0978 H   0  0  0  0  0  0  0  0  0  0  0  0
    3.2552    0.5201    1.4687 H   0  0  0  0  0  0  0  0  0  0  0  0
    4.2111    0.4834   -0.0226 H   0  0  0  0  0  0  0  0  0  0  0  0
  1  2  1  0  0  0  0
  2  3  1  0  0  0  0
  3  4  1  0  0  0  0
  4  5  2  0  0  0  0
  4  6  1  0  0  0  0
  6  7  1  0  0  0  0
  7  8  1  0  0  0  0
  1  9  1  0  0  0  0
  1 10  1  0  0  0  0
  1 11  1  0  0  0  0
  2 12  1  0  0  0  0
  2 13  1  0  0  0  0
  3 14  1  0  0  0  0
  3 15  1  0  0  0  0
  7 16  1  0  0  0  0
  7 17  1  0  0  0  0
  8 18  1  0  0  0  0
  8 19  1  0  0  0  0
  8 20  1  0  0  0  0
M  END
