 xtb: 6.7.1 (edcfbbe)
          04112512293D

 16 15  0     0  0            999 V2000
    2.1251   -0.3394    0.5861 C   0  0  0  0  0  0  0  0  0  0  0  0
    1.3849    0.4528   -0.4859 C   0  0  0  0  0  0  0  0  0  0  0  0
   -0.0376   -0.0489   -0.7329 C   0  0  0  0  0  0  0  0  0  0  0  0
   -0.9816    0.2060    0.4408 C   0  0  0  0  0  0  0  0  0  0  0  0
   -2.3186   -0.2801    0.1212 N   0  0  0  0  0  0  0  0  0  0  0  0
    2.1319   -1.3978    0.3370 H   0  0  0  0  0  0  0  0  0  0  0  0
    3.1542    0.0033    0.6627 H   0  0  0  0  0  0  0  0  0  0  0  0
    1.6539   -0.2172    1.5576 H   0  0  0  0  0  0  0  0  0  0  0  0
    1.3508    1.5070   -0.2003 H   0  0  0  0  0  0  0  0  0  0  0  0
    1.9418    0.3822   -1.4227 H   0  0  0  0  0  0  0  0  0  0  0  0
   -0.4423    0.4543   -1.6149 H   0  0  0  0  0  0  0  0  0  0  0  0
   -0.0228   -1.1194   -0.9410 H   0  0  0  0  0  0  0  0  0  0  0  0
   -0.9625    1.2825    0.6886 H   0  0  0  0  0  0  0  0  0  0  0  0
   -0.6414   -0.3458    1.3203 H   0  0  0  0  0  0  0  0  0  0  0  0
   -2.6798    0.2223   -0.6832 H   0  0  0  0  0  0  0  0  0  0  0  0
   -2.9445   -0.1019    0.8984 H   0  0  0  0  0  0  0  0  0  0  0  0
  1  2  1  0  0  0  0
  2  3  1  0  0  0  0
  3  4  1  0  0  0  0
  4  5  1  0  0  0  0
  1  6  1  0  0  0  0
  1  7  1  0  0  0  0
  1  8  1  0  0  0  0
  2  9  1  0  0  0  0
  2 10  1  0  0  0  0
  3 11  1  0  0  0  0
  3 12  1  0  0  0  0
  4 13  1  0  0  0  0
  4 14  1  0  0  0  0
  5 15  1  0  0  0  0
  5 16  1  0  0  0  0
M  END
