 xtb: 6.7.1 (edcfbbe)
          04112515543D

 17 16  0     0  0            999 V2000
    2.9558    0.1871    0.5873 C   0  0  0  0  0  0  0  0  0  0  0  0
    1.8922   -0.7413    0.0111 C   0  0  0  0  0  0  0  0  0  0  0  0
    0.9530   -0.0481   -0.9778 C   0  0  0  0  0  0  0  0  0  0  0  0
    0.1189    1.0905   -0.3869 C   0  0  0  0  0  0  0  0  0  0  0  0
   -0.8654    0.6494    0.6814 C   0  0  0  0  0  0  0  0  0  0  0  0
   -2.1034   -0.4729    0.0077 Cl  0  0  0  0  0  0  0  0  0  0  0  0
    3.5030    0.6793   -0.2133 H   0  0  0  0  0  0  0  0  0  0  0  0
    3.6633   -0.3811    1.1865 H   0  0  0  0  0  0  0  0  0  0  0  0
    2.5121    0.9485    1.2229 H   0  0  0  0  0  0  0  0  0  0  0  0
    2.3873   -1.5595   -0.5168 H   0  0  0  0  0  0  0  0  0  0  0  0
    1.3160   -1.1870    0.8236 H   0  0  0  0  0  0  0  0  0  0  0  0
    0.2759   -0.7943   -1.3993 H   0  0  0  0  0  0  0  0  0  0  0  0
    1.5480    0.3580   -1.7984 H   0  0  0  0  0  0  0  0  0  0  0  0
   -0.4313    1.5743   -1.1958 H   0  0  0  0  0  0  0  0  0  0  0  0
    0.7756    1.8361    0.0629 H   0  0  0  0  0  0  0  0  0  0  0  0
   -0.3784    0.1090    1.4898 H   0  0  0  0  0  0  0  0  0  0  0  0
   -1.4197    1.4969    1.0799 H   0  0  0  0  0  0  0  0  0  0  0  0
  1  2  1  0  0  0  0
  2  3  1  0  0  0  0
  3  4  1  0  0  0  0
  4  5  1  0  0  0  0
  5  6  1  0  0  0  0
  1  7  1  0  0  0  0
  1  8  1  0  0  0  0
  1  9  1  0  0  0  0
  2 10  1  0  0  0  0
  2 11  1  0  0  0  0
  3 12  1  0  0  0  0
  3 13  1  0  0  0  0
  4 14  1  0  0  0  0
  4 15  1  0  0  0  0
  5 16  1  0  0  0  0
  5 17  1  0  0  0  0
M  END
