 xtb: 6.7.1 (edcfbbe)
          04112515563D

 33 35  0     0  0            999 V2000
   -4.4748   -1.2299   -0.2682 C   0  0  0  0  0  0  0  0  0  0  0  0
   -3.6538   -2.3491   -0.2685 C   0  0  0  0  0  0  0  0  0  0  0  0
   -2.2829   -2.2020   -0.1676 C   0  0  0  0  0  0  0  0  0  0  0  0
   -1.7073   -0.9372   -0.0664 C   0  0  0  0  0  0  0  0  0  0  0  0
   -2.5365    0.1900   -0.0669 C   0  0  0  0  0  0  0  0  0  0  0  0
   -3.9177    0.0307   -0.1674 C   0  0  0  0  0  0  0  0  0  0  0  0
   -1.9694    1.5402    0.0378 C   0  0  0  0  0  0  0  0  0  0  0  0
   -2.6873    2.5386    0.0555 O   0  0  0  0  0  0  0  0  0  0  0  0
   -0.5019    1.6407    0.1159 C   0  0  0  0  0  0  0  0  0  0  0  0
    0.0359    2.9147    0.1832 C   0  0  0  0  0  0  0  0  0  0  0  0
    1.4152    3.0956    0.2501 C   0  0  0  0  0  0  0  0  0  0  0  0
    2.2516    2.0122    0.2533 C   0  0  0  0  0  0  0  0  0  0  0  0
    1.7470    0.6890    0.1937 C   0  0  0  0  0  0  0  0  0  0  0  0
    0.3324    0.4981    0.1206 C   0  0  0  0  0  0  0  0  0  0  0  0
   -0.2381   -0.8291    0.0441 C   0  0  0  0  0  0  0  0  0  0  0  0
    0.4404   -1.8706    0.0663 O   0  0  0  0  0  0  0  0  0  0  0  0
    2.5802   -0.3542    0.2235 N   0  0  0  0  0  0  0  0  0  0  0  0
    4.0209   -0.2884    0.2293 C   0  0  0  0  0  0  0  0  0  0  0  0
    4.5905   -1.7021    0.2929 C   0  0  0  0  0  0  0  0  0  0  0  0
    4.2754   -2.3650   -0.9154 O   0  0  0  0  0  0  0  0  0  0  0  0
   -5.5448   -1.3416   -0.3462 H   0  0  0  0  0  0  0  0  0  0  0  0
   -4.0836   -3.3354   -0.3470 H   0  0  0  0  0  0  0  0  0  0  0  0
   -1.6270   -3.0599   -0.1648 H   0  0  0  0  0  0  0  0  0  0  0  0
   -4.5317    0.9192   -0.1641 H   0  0  0  0  0  0  0  0  0  0  0  0
   -0.6396    3.7563    0.1789 H   0  0  0  0  0  0  0  0  0  0  0  0
    1.8210    4.0940    0.2973 H   0  0  0  0  0  0  0  0  0  0  0  0
    3.3171    2.1600    0.3000 H   0  0  0  0  0  0  0  0  0  0  0  0
    2.1569   -1.2704    0.0938 H   0  0  0  0  0  0  0  0  0  0  0  0
    4.3715    0.2751    1.0993 H   0  0  0  0  0  0  0  0  0  0  0  0
    4.3856    0.1921   -0.6861 H   0  0  0  0  0  0  0  0  0  0  0  0
    4.1556   -2.2318    1.1494 H   0  0  0  0  0  0  0  0  0  0  0  0
    5.6783   -1.6411    0.4243 H   0  0  0  0  0  0  0  0  0  0  0  0
    4.5767   -3.2811   -0.8717 H   0  0  0  0  0  0  0  0  0  0  0  0
  1  2  4  0  0  0  0
  2  3  4  0  0  0  0
  3  4  4  0  0  0  0
  4  5  4  0  0  0  0
  1  6  4  0  0  0  0
  5  6  4  0  0  0  0
  5  7  1  0  0  0  0
  7  8  2  0  0  0  0
  7  9  1  0  0  0  0
  9 10  4  0  0  0  0
 10 11  4  0  0  0  0
 11 12  2  0  0  0  0
 12 13  4  0  0  0  0
  9 14  4  0  0  0  0
 13 14  4  0  0  0  0
  4 15  1  0  0  0  0
 14 15  1  0  0  0  0
 15 16  2  0  0  0  0
 13 17  4  0  0  0  0
 17 18  1  0  0  0  0
 18 19  1  0  0  0  0
 19 20  1  0  0  0  0
  1 21  1  0  0  0  0
  2 22  1  0  0  0  0
  3 23  1  0  0  0  0
  6 24  1  0  0  0  0
 10 25  1  0  0  0  0
 11 26  1  0  0  0  0
 12 27  1  0  0  0  0
 17 28  1  0  0  0  0
 18 29  1  0  0  0  0
 18 30  1  0  0  0  0
 19 31  1  0  0  0  0
 19 32  1  0  0  0  0
 20 33  1  0  0  0  0
M  END
