 xtb: 6.7.1 (edcfbbe)
          04112515533D

 20 19  0     0  0            999 V2000
   -3.0003   -0.9170   -0.2509 C   0  0  0  0  0  0  0  0  0  0  0  0
   -2.3260    0.4112   -0.5725 C   0  0  0  0  0  0  0  0  0  0  0  0
   -1.2585    0.7929    0.4593 C   0  0  0  0  0  0  0  0  0  0  0  0
    0.0063   -0.0172    0.3288 C   0  0  0  0  0  0  0  0  0  0  0  0
    0.0734   -1.2050    0.0950 O   0  0  0  0  0  0  0  0  0  0  0  0
    1.0768    0.7485    0.5234 O   0  0  0  0  0  0  0  0  0  0  0  0
    2.3779    0.1428    0.4434 C   0  0  0  0  0  0  0  0  0  0  0  0
    2.8950    0.1461   -0.9871 C   0  0  0  0  0  0  0  0  0  0  0  0
   -3.7277   -1.1665   -1.0188 H   0  0  0  0  0  0  0  0  0  0  0  0
   -2.2603   -1.7115   -0.2029 H   0  0  0  0  0  0  0  0  0  0  0  0
   -3.5129   -0.8624    0.7067 H   0  0  0  0  0  0  0  0  0  0  0  0
   -3.0770    1.2022   -0.5952 H   0  0  0  0  0  0  0  0  0  0  0  0
   -1.8660    0.3553   -1.5610 H   0  0  0  0  0  0  0  0  0  0  0  0
   -1.6513    0.6230    1.4646 H   0  0  0  0  0  0  0  0  0  0  0  0
   -0.9852    1.8441    0.3705 H   0  0  0  0  0  0  0  0  0  0  0  0
    3.0061    0.7515    1.0943 H   0  0  0  0  0  0  0  0  0  0  0  0
    2.3109   -0.8801    0.8266 H   0  0  0  0  0  0  0  0  0  0  0  0
    2.9043    1.1596   -1.3788 H   0  0  0  0  0  0  0  0  0  0  0  0
    3.9026   -0.2560   -1.0066 H   0  0  0  0  0  0  0  0  0  0  0  0
    2.2564   -0.4710   -1.6152 H   0  0  0  0  0  0  0  0  0  0  0  0
  1  2  1  0  0  0  0
  2  3  1  0  0  0  0
  3  4  1  0  0  0  0
  4  5  2  0  0  0  0
  4  6  1  0  0  0  0
  6  7  1  0  0  0  0
  7  8  1  0  0  0  0
  1  9  1  0  0  0  0
  1 10  1  0  0  0  0
  1 11  1  0  0  0  0
  2 12  1  0  0  0  0
  2 13  1  0  0  0  0
  3 14  1  0  0  0  0
  3 15  1  0  0  0  0
  7 16  1  0  0  0  0
  7 17  1  0  0  0  0
  8 18  1  0  0  0  0
  8 19  1  0  0  0  0
  8 20  1  0  0  0  0
M  END
