 xtb: 6.7.1 (edcfbbe)
          04112515563D

 33 35  0     0  0            999 V2000
   -4.4695   -1.2470   -0.2242 C   0  0  0  0  0  0  0  0  0  0  0  0
   -3.6426   -2.3616   -0.2474 C   0  0  0  0  0  0  0  0  0  0  0  0
   -2.2707   -2.2075   -0.1723 C   0  0  0  0  0  0  0  0  0  0  0  0
   -1.7006   -0.9401   -0.0739 C   0  0  0  0  0  0  0  0  0  0  0  0
   -2.5357    0.1825   -0.0512 C   0  0  0  0  0  0  0  0  0  0  0  0
   -3.9177    0.0161   -0.1264 C   0  0  0  0  0  0  0  0  0  0  0  0
   -1.9740    1.5352    0.0506 C   0  0  0  0  0  0  0  0  0  0  0  0
   -2.6962    2.5300    0.0806 O   0  0  0  0  0  0  0  0  0  0  0  0
   -0.5060    1.6429    0.1131 C   0  0  0  0  0  0  0  0  0  0  0  0
    0.0250    2.9191    0.1943 C   0  0  0  0  0  0  0  0  0  0  0  0
    1.4035    3.1066    0.2533 C   0  0  0  0  0  0  0  0  0  0  0  0
    2.2456    2.0276    0.2347 C   0  0  0  0  0  0  0  0  0  0  0  0
    1.7482    0.7025    0.1586 C   0  0  0  0  0  0  0  0  0  0  0  0
    0.3345    0.5054    0.0923 C   0  0  0  0  0  0  0  0  0  0  0  0
   -0.2297   -0.8246    0.0042 C   0  0  0  0  0  0  0  0  0  0  0  0
    0.4560   -1.8605   -0.0099 O   0  0  0  0  0  0  0  0  0  0  0  0
    2.5908   -0.3340    0.1522 N   0  0  0  0  0  0  0  0  0  0  0  0
    4.0301   -0.2597    0.2048 C   0  0  0  0  0  0  0  0  0  0  0  0
    4.6026   -1.6760    0.3108 C   0  0  0  0  0  0  0  0  0  0  0  0
    4.2283   -2.5012   -0.7668 O   0  0  0  0  0  0  0  0  0  0  0  0
   -5.5402   -1.3644   -0.2824 H   0  0  0  0  0  0  0  0  0  0  0  0
   -4.0682   -3.3499   -0.3239 H   0  0  0  0  0  0  0  0  0  0  0  0
   -1.6098   -3.0616   -0.1884 H   0  0  0  0  0  0  0  0  0  0  0  0
   -4.5365    0.9010   -0.1060 H   0  0  0  0  0  0  0  0  0  0  0  0
   -0.6554    3.7566    0.2082 H   0  0  0  0  0  0  0  0  0  0  0  0
    1.8044    4.1062    0.3121 H   0  0  0  0  0  0  0  0  0  0  0  0
    3.3103    2.1826    0.2765 H   0  0  0  0  0  0  0  0  0  0  0  0
    2.1795   -1.2596    0.0491 H   0  0  0  0  0  0  0  0  0  0  0  0
    4.3535    0.3117    1.0804 H   0  0  0  0  0  0  0  0  0  0  0  0
    4.4176    0.2294   -0.6979 H   0  0  0  0  0  0  0  0  0  0  0  0
    4.2067   -2.1678    1.2021 H   0  0  0  0  0  0  0  0  0  0  0  0
    5.6946   -1.6183    0.3975 H   0  0  0  0  0  0  0  0  0  0  0  0
    4.5943   -2.1451   -1.5885 H   0  0  0  0  0  0  0  0  0  0  0  0
  1  2  4  0  0  0  0
  2  3  4  0  0  0  0
  3  4  4  0  0  0  0
  4  5  4  0  0  0  0
  1  6  4  0  0  0  0
  5  6  4  0  0  0  0
  5  7  1  0  0  0  0
  7  8  2  0  0  0  0
  7  9  1  0  0  0  0
  9 10  4  0  0  0  0
 10 11  4  0  0  0  0
 11 12  2  0  0  0  0
 12 13  4  0  0  0  0
  9 14  4  0  0  0  0
 13 14  4  0  0  0  0
  4 15  1  0  0  0  0
 14 15  1  0  0  0  0
 15 16  2  0  0  0  0
 13 17  4  0  0  0  0
 17 18  1  0  0  0  0
 18 19  1  0  0  0  0
 19 20  1  0  0  0  0
  1 21  1  0  0  0  0
  2 22  1  0  0  0  0
  3 23  1  0  0  0  0
  6 24  1  0  0  0  0
 10 25  1  0  0  0  0
 11 26  1  0  0  0  0
 12 27  1  0  0  0  0
 17 28  1  0  0  0  0
 18 29  1  0  0  0  0
 18 30  1  0  0  0  0
 19 31  1  0  0  0  0
 19 32  1  0  0  0  0
 20 33  1  0  0  0  0
M  END
