 xtb: 6.7.1 (edcfbbe)
          04112515593D

 20 19  0     0  0            999 V2000
   -1.7942   -1.1941   -0.5812 C   0  0  0  0  0  0  0  0  0  0  0  0
   -2.3651   -0.0620    0.2639 C   0  0  0  0  0  0  0  0  0  0  0  0
   -1.3239    0.6142    1.1555 C   0  0  0  0  0  0  0  0  0  0  0  0
   -0.2596    1.3853    0.3672 C   0  0  0  0  0  0  0  0  0  0  0  0
    0.7800    0.5142   -0.2881 C   0  0  0  0  0  0  0  0  0  0  0  0
    1.1766    0.6632   -1.4280 O   0  0  0  0  0  0  0  0  0  0  0  0
    1.2522   -0.4094    0.5383 O   0  0  0  0  0  0  0  0  0  0  0  0
    2.2714   -1.2987    0.0768 C   0  0  0  0  0  0  0  0  0  0  0  0
   -2.5867   -1.6839   -1.1419 H   0  0  0  0  0  0  0  0  0  0  0  0
   -1.0632   -0.8186   -1.2944 H   0  0  0  0  0  0  0  0  0  0  0  0
   -1.3111   -1.9355    0.0515 H   0  0  0  0  0  0  0  0  0  0  0  0
   -2.8175    0.6847   -0.3921 H   0  0  0  0  0  0  0  0  0  0  0  0
   -3.1540   -0.4638    0.9030 H   0  0  0  0  0  0  0  0  0  0  0  0
   -0.8335   -0.1318    1.7816 H   0  0  0  0  0  0  0  0  0  0  0  0
   -1.8366    1.3219    1.8084 H   0  0  0  0  0  0  0  0  0  0  0  0
    0.2837    2.0397    1.0525 H   0  0  0  0  0  0  0  0  0  0  0  0
   -0.7171    2.0018   -0.4073 H   0  0  0  0  0  0  0  0  0  0  0  0
    3.1989   -1.0528    0.5921 H   0  0  0  0  0  0  0  0  0  0  0  0
    2.4002   -1.1897   -1.0007 H   0  0  0  0  0  0  0  0  0  0  0  0
    1.9562   -2.3093    0.3272 H   0  0  0  0  0  0  0  0  0  0  0  0
  1  2  1  0  0  0  0
  2  3  1  0  0  0  0
  3  4  1  0  0  0  0
  4  5  1  0  0  0  0
  5  6  2  0  0  0  0
  5  7  1  0  0  0  0
  7  8  1  0  0  0  0
  1  9  1  0  0  0  0
  1 10  1  0  0  0  0
  1 11  1  0  0  0  0
  2 12  1  0  0  0  0
  2 13  1  0  0  0  0
  3 14  1  0  0  0  0
  3 15  1  0  0  0  0
  4 16  1  0  0  0  0
  4 17  1  0  0  0  0
  8 18  1  0  0  0  0
  8 19  1  0  0  0  0
  8 20  1  0  0  0  0
M  END
