 xtb: 6.7.1 (edcfbbe)
          04112515593D

 20 19  0     0  0            999 V2000
   -2.2910   -1.2463    0.5899 C   0  0  0  0  0  0  0  0  0  0  0  0
   -1.9687   -0.3209   -0.5784 C   0  0  0  0  0  0  0  0  0  0  0  0
   -1.5645    1.0883   -0.1422 C   0  0  0  0  0  0  0  0  0  0  0  0
   -0.2978    1.1172    0.7242 C   0  0  0  0  0  0  0  0  0  0  0  0
    0.8611    0.5132   -0.0230 C   0  0  0  0  0  0  0  0  0  0  0  0
    1.3520    0.9681   -1.0353 O   0  0  0  0  0  0  0  0  0  0  0  0
    1.2850   -0.6084    0.5501 O   0  0  0  0  0  0  0  0  0  0  0  0
    2.3755   -1.3031   -0.0599 C   0  0  0  0  0  0  0  0  0  0  0  0
   -3.0341   -0.7904    1.2397 H   0  0  0  0  0  0  0  0  0  0  0  0
   -2.6886   -2.1884    0.2209 H   0  0  0  0  0  0  0  0  0  0  0  0
   -1.3998   -1.4619    1.1732 H   0  0  0  0  0  0  0  0  0  0  0  0
   -1.1658   -0.7566   -1.1790 H   0  0  0  0  0  0  0  0  0  0  0  0
   -2.8475   -0.2376   -1.2212 H   0  0  0  0  0  0  0  0  0  0  0  0
   -2.3796    1.5410    0.4237 H   0  0  0  0  0  0  0  0  0  0  0  0
   -1.3862    1.6944   -1.0328 H   0  0  0  0  0  0  0  0  0  0  0  0
   -0.4444    0.5679    1.6516 H   0  0  0  0  0  0  0  0  0  0  0  0
   -0.0491    2.1549    0.9491 H   0  0  0  0  0  0  0  0  0  0  0  0
    2.3606   -2.3055    0.3567 H   0  0  0  0  0  0  0  0  0  0  0  0
    3.3120   -0.7983    0.1789 H   0  0  0  0  0  0  0  0  0  0  0  0
    2.2467   -1.3232   -1.1429 H   0  0  0  0  0  0  0  0  0  0  0  0
  1  2  1  0  0  0  0
  2  3  1  0  0  0  0
  3  4  1  0  0  0  0
  4  5  1  0  0  0  0
  5  6  2  0  0  0  0
  5  7  1  0  0  0  0
  7  8  1  0  0  0  0
  1  9  1  0  0  0  0
  1 10  1  0  0  0  0
  1 11  1  0  0  0  0
  2 12  1  0  0  0  0
  2 13  1  0  0  0  0
  3 14  1  0  0  0  0
  3 15  1  0  0  0  0
  4 16  1  0  0  0  0
  4 17  1  0  0  0  0
  8 18  1  0  0  0  0
  8 19  1  0  0  0  0
  8 20  1  0  0  0  0
M  END
