 xtb: 6.7.1 (edcfbbe)
          04112515533D

 20 19  0     0  0            999 V2000
   -2.5798   -0.5370    1.0905 C   0  0  0  0  0  0  0  0  0  0  0  0
   -2.0946   -0.8196   -0.3261 C   0  0  0  0  0  0  0  0  0  0  0  0
   -1.3701    0.3900   -0.9303 C   0  0  0  0  0  0  0  0  0  0  0  0
   -0.1031    0.6976   -0.1741 C   0  0  0  0  0  0  0  0  0  0  0  0
    0.1100    1.7274    0.4344 O   0  0  0  0  0  0  0  0  0  0  0  0
    0.7665   -0.2983   -0.2533 O   0  0  0  0  0  0  0  0  0  0  0  0
    2.0334   -0.1676    0.4119 C   0  0  0  0  0  0  0  0  0  0  0  0
    3.0651   -0.9762   -0.3527 C   0  0  0  0  0  0  0  0  0  0  0  0
   -3.0804   -1.4094    1.5020 H   0  0  0  0  0  0  0  0  0  0  0  0
   -1.7444   -0.2797    1.7395 H   0  0  0  0  0  0  0  0  0  0  0  0
   -3.2774    0.2972    1.0955 H   0  0  0  0  0  0  0  0  0  0  0  0
   -2.9474   -1.0648   -0.9599 H   0  0  0  0  0  0  0  0  0  0  0  0
   -1.4143   -1.6722   -0.3220 H   0  0  0  0  0  0  0  0  0  0  0  0
   -2.0070    1.2739   -0.8993 H   0  0  0  0  0  0  0  0  0  0  0  0
   -1.0985    0.1702   -1.9632 H   0  0  0  0  0  0  0  0  0  0  0  0
    2.2951    0.8946    0.4560 H   0  0  0  0  0  0  0  0  0  0  0  0
    1.9145   -0.5412    1.4339 H   0  0  0  0  0  0  0  0  0  0  0  0
    4.0214   -0.9094    0.1555 H   0  0  0  0  0  0  0  0  0  0  0  0
    2.7568   -2.0162   -0.4032 H   0  0  0  0  0  0  0  0  0  0  0  0
    3.1698   -0.5921   -1.3634 H   0  0  0  0  0  0  0  0  0  0  0  0
  1  2  1  0  0  0  0
  2  3  1  0  0  0  0
  3  4  1  0  0  0  0
  4  5  2  0  0  0  0
  4  6  1  0  0  0  0
  6  7  1  0  0  0  0
  7  8  1  0  0  0  0
  1  9  1  0  0  0  0
  1 10  1  0  0  0  0
  1 11  1  0  0  0  0
  2 12  1  0  0  0  0
  2 13  1  0  0  0  0
  3 14  1  0  0  0  0
  3 15  1  0  0  0  0
  7 16  1  0  0  0  0
  7 17  1  0  0  0  0
  8 18  1  0  0  0  0
  8 19  1  0  0  0  0
  8 20  1  0  0  0  0
M  END
