 xtb: 6.7.1 (edcfbbe)
          04112515593D

 20 19  0     0  0            999 V2000
   -3.1309   -1.1193    0.0082 C   0  0  0  0  0  0  0  0  0  0  0  0
   -1.9447   -0.2830    0.4731 C   0  0  0  0  0  0  0  0  0  0  0  0
   -1.3592    0.5452   -0.6688 C   0  0  0  0  0  0  0  0  0  0  0  0
   -0.1659    1.3925   -0.2110 C   0  0  0  0  0  0  0  0  0  0  0  0
    0.9785    0.5221    0.2372 C   0  0  0  0  0  0  0  0  0  0  0  0
    1.4421    0.4996    1.3589 O   0  0  0  0  0  0  0  0  0  0  0  0
    1.4394   -0.2364   -0.7510 O   0  0  0  0  0  0  0  0  0  0  0  0
    2.5215   -1.1213   -0.4557 C   0  0  0  0  0  0  0  0  0  0  0  0
   -3.5355   -1.6989    0.8338 H   0  0  0  0  0  0  0  0  0  0  0  0
   -3.9175   -0.4771   -0.3804 H   0  0  0  0  0  0  0  0  0  0  0  0
   -2.8275   -1.8058   -0.7787 H   0  0  0  0  0  0  0  0  0  0  0  0
   -2.2610    0.3843    1.2778 H   0  0  0  0  0  0  0  0  0  0  0  0
   -1.1710   -0.9389    0.8811 H   0  0  0  0  0  0  0  0  0  0  0  0
   -2.1288    1.2107   -1.0622 H   0  0  0  0  0  0  0  0  0  0  0  0
   -1.0364   -0.1171   -1.4737 H   0  0  0  0  0  0  0  0  0  0  0  0
   -0.4481    2.0375    0.6210 H   0  0  0  0  0  0  0  0  0  0  0  0
    0.1838    2.0030   -1.0441 H   0  0  0  0  0  0  0  0  0  0  0  0
    2.2223   -1.8345    0.3135 H   0  0  0  0  0  0  0  0  0  0  0  0
    3.3804   -0.5535   -0.0958 H   0  0  0  0  0  0  0  0  0  0  0  0
    2.7498   -1.6266   -1.3887 H   0  0  0  0  0  0  0  0  0  0  0  0
  1  2  1  0  0  0  0
  2  3  1  0  0  0  0
  3  4  1  0  0  0  0
  4  5  1  0  0  0  0
  5  6  2  0  0  0  0
  5  7  1  0  0  0  0
  7  8  1  0  0  0  0
  1  9  1  0  0  0  0
  1 10  1  0  0  0  0
  1 11  1  0  0  0  0
  2 12  1  0  0  0  0
  2 13  1  0  0  0  0
  3 14  1  0  0  0  0
  3 15  1  0  0  0  0
  4 16  1  0  0  0  0
  4 17  1  0  0  0  0
  8 18  1  0  0  0  0
  8 19  1  0  0  0  0
  8 20  1  0  0  0  0
M  END
