 xtb: 6.7.1 (edcfbbe)
          04112512293D

 21 20  0     0  0            999 V2000
    2.2389    0.6335   -1.0672 C   0  0  0  0  0  0  0  0  0  0  0  0
    1.3868   -0.3568   -0.2906 C   0  0  0  0  0  0  0  0  0  0  0  0
    2.1978   -1.1359    0.7319 C   0  0  0  0  0  0  0  0  0  0  0  0
    0.0236    0.5518    0.5706 S   0  0  0  0  0  0  0  0  0  0  0  0
   -1.4654   -0.3504   -0.0480 C   0  0  0  0  0  0  0  0  0  0  0  0
   -2.6049   -0.0930    0.9242 C   0  0  0  0  0  0  0  0  0  0  0  0
   -1.8076    0.1012   -1.4578 C   0  0  0  0  0  0  0  0  0  0  0  0
    1.6293    1.1890   -1.7759 H   0  0  0  0  0  0  0  0  0  0  0  0
    2.7033    1.3421   -0.3853 H   0  0  0  0  0  0  0  0  0  0  0  0
    3.0193    0.1059   -1.6113 H   0  0  0  0  0  0  0  0  0  0  0  0
    0.8890   -1.0438   -0.9782 H   0  0  0  0  0  0  0  0  0  0  0  0
    1.5591   -1.8198    1.2863 H   0  0  0  0  0  0  0  0  0  0  0  0
    2.6633   -0.4522    1.4381 H   0  0  0  0  0  0  0  0  0  0  0  0
    2.9758   -1.7092    0.2322 H   0  0  0  0  0  0  0  0  0  0  0  0
   -1.1955   -1.4099   -0.0349 H   0  0  0  0  0  0  0  0  0  0  0  0
   -2.8361    0.9693    0.9564 H   0  0  0  0  0  0  0  0  0  0  0  0
   -3.4915   -0.6371    0.6074 H   0  0  0  0  0  0  0  0  0  0  0  0
   -2.3309   -0.4152    1.9258 H   0  0  0  0  0  0  0  0  0  0  0  0
   -2.6720   -0.4489   -1.8236 H   0  0  0  0  0  0  0  0  0  0  0  0
   -0.9757   -0.0708   -2.1376 H   0  0  0  0  0  0  0  0  0  0  0  0
   -2.0402    1.1638   -1.4595 H   0  0  0  0  0  0  0  0  0  0  0  0
  1  2  1  0  0  0  0
  2  3  1  0  0  0  0
  2  4  1  0  0  0  0
  4  5  1  0  0  0  0
  5  6  1  0  0  0  0
  5  7  1  0  0  0  0
  1  8  1  0  0  0  0
  1  9  1  0  0  0  0
  1 10  1  0  0  0  0
  2 11  1  0  0  0  0
  3 12  1  0  0  0  0
  3 13  1  0  0  0  0
  3 14  1  0  0  0  0
  5 15  1  0  0  0  0
  6 16  1  0  0  0  0
  6 17  1  0  0  0  0
  6 18  1  0  0  0  0
  7 19  1  0  0  0  0
  7 20  1  0  0  0  0
  7 21  1  0  0  0  0
M  END
