 xtb: 6.7.1 (edcfbbe)
          04112515543D

 17 16  0     0  0            999 V2000
    3.6287   -0.5133    0.1470 C   0  0  0  0  0  0  0  0  0  0  0  0
    2.1615   -0.5136   -0.2680 C   0  0  0  0  0  0  0  0  0  0  0  0
    1.4190    0.6889    0.3128 C   0  0  0  0  0  0  0  0  0  0  0  0
   -0.0249    0.8142   -0.1808 C   0  0  0  0  0  0  0  0  0  0  0  0
   -0.9049   -0.3069    0.3443 C   0  0  0  0  0  0  0  0  0  0  0  0
   -2.6149   -0.0495   -0.1534 Cl  0  0  0  0  0  0  0  0  0  0  0  0
    3.7174   -0.5478    1.2304 H   0  0  0  0  0  0  0  0  0  0  0  0
    4.1261    0.3861   -0.2083 H   0  0  0  0  0  0  0  0  0  0  0  0
    4.1432   -1.3766   -0.2673 H   0  0  0  0  0  0  0  0  0  0  0  0
    2.0940   -0.4870   -1.3574 H   0  0  0  0  0  0  0  0  0  0  0  0
    1.6957   -1.4386    0.0743 H   0  0  0  0  0  0  0  0  0  0  0  0
    1.9532    1.5977    0.0298 H   0  0  0  0  0  0  0  0  0  0  0  0
    1.4253    0.6269    1.4026 H   0  0  0  0  0  0  0  0  0  0  0  0
   -0.0422    0.8083   -1.2720 H   0  0  0  0  0  0  0  0  0  0  0  0
   -0.4341    1.7684    0.1560 H   0  0  0  0  0  0  0  0  0  0  0  0
   -0.6207   -1.2757   -0.0599 H   0  0  0  0  0  0  0  0  0  0  0  0
   -0.9067   -0.3373    1.4327 H   0  0  0  0  0  0  0  0  0  0  0  0
  1  2  1  0  0  0  0
  2  3  1  0  0  0  0
  3  4  1  0  0  0  0
  4  5  1  0  0  0  0
  5  6  1  0  0  0  0
  1  7  1  0  0  0  0
  1  8  1  0  0  0  0
  1  9  1  0  0  0  0
  2 10  1  0  0  0  0
  2 11  1  0  0  0  0
  3 12  1  0  0  0  0
  3 13  1  0  0  0  0
  4 14  1  0  0  0  0
  4 15  1  0  0  0  0
  5 16  1  0  0  0  0
  5 17  1  0  0  0  0
M  END
