 xtb: 6.7.1 (edcfbbe)
          04112515533D

 20 19  0     0  0            999 V2000
   -3.3443   -1.0368    0.3229 C   0  0  0  0  0  0  0  0  0  0  0  0
   -1.8313   -0.9203    0.1807 C   0  0  0  0  0  0  0  0  0  0  0  0
   -1.4115    0.5323   -0.0279 C   0  0  0  0  0  0  0  0  0  0  0  0
    0.0726    0.7415   -0.1820 C   0  0  0  0  0  0  0  0  0  0  0  0
    0.6031    1.8350   -0.1411 O   0  0  0  0  0  0  0  0  0  0  0  0
    0.7361   -0.3853   -0.3922 O   0  0  0  0  0  0  0  0  0  0  0  0
    2.1618   -0.3220   -0.5613 C   0  0  0  0  0  0  0  0  0  0  0  0
    2.8759   -0.4341    0.7769 C   0  0  0  0  0  0  0  0  0  0  0  0
   -3.6948   -0.4531    1.1706 H   0  0  0  0  0  0  0  0  0  0  0  0
   -3.8413   -0.6735   -0.5731 H   0  0  0  0  0  0  0  0  0  0  0  0
   -3.6295   -2.0737    0.4779 H   0  0  0  0  0  0  0  0  0  0  0  0
   -1.4931   -1.5194   -0.6653 H   0  0  0  0  0  0  0  0  0  0  0  0
   -1.3468   -1.3103    1.0771 H   0  0  0  0  0  0  0  0  0  0  0  0
   -1.7432    1.1588    0.8029 H   0  0  0  0  0  0  0  0  0  0  0  0
   -1.8789    0.9334   -0.9314 H   0  0  0  0  0  0  0  0  0  0  0  0
    2.4001   -1.1659   -1.2095 H   0  0  0  0  0  0  0  0  0  0  0  0
    2.4141    0.6214   -1.0552 H   0  0  0  0  0  0  0  0  0  0  0  0
    3.9483   -0.4485    0.6120 H   0  0  0  0  0  0  0  0  0  0  0  0
    2.6266    0.4185    1.4045 H   0  0  0  0  0  0  0  0  0  0  0  0
    2.5781   -1.3475    1.2845 H   0  0  0  0  0  0  0  0  0  0  0  0
  1  2  1  0  0  0  0
  2  3  1  0  0  0  0
  3  4  1  0  0  0  0
  4  5  2  0  0  0  0
  4  6  1  0  0  0  0
  6  7  1  0  0  0  0
  7  8  1  0  0  0  0
  1  9  1  0  0  0  0
  1 10  1  0  0  0  0
  1 11  1  0  0  0  0
  2 12  1  0  0  0  0
  2 13  1  0  0  0  0
  3 14  1  0  0  0  0
  3 15  1  0  0  0  0
  7 16  1  0  0  0  0
  7 17  1  0  0  0  0
  8 18  1  0  0  0  0
  8 19  1  0  0  0  0
  8 20  1  0  0  0  0
M  END
