 xtb: 6.7.1 (edcfbbe)
          04112515543D

 17 16  0     0  0            999 V2000
    2.7155   -1.0326   -0.3352 C   0  0  0  0  0  0  0  0  0  0  0  0
    2.3670    0.1981    0.4963 C   0  0  0  0  0  0  0  0  0  0  0  0
    1.4180    1.1683   -0.2210 C   0  0  0  0  0  0  0  0  0  0  0  0
   -0.0568    1.0126    0.1638 C   0  0  0  0  0  0  0  0  0  0  0  0
   -0.6337   -0.3285   -0.2515 C   0  0  0  0  0  0  0  0  0  0  0  0
   -2.4048   -0.3766    0.0731 Cl  0  0  0  0  0  0  0  0  0  0  0  0
    3.3862   -1.6836    0.2209 H   0  0  0  0  0  0  0  0  0  0  0  0
    3.2154   -0.7363   -1.2546 H   0  0  0  0  0  0  0  0  0  0  0  0
    1.8277   -1.6003   -0.5981 H   0  0  0  0  0  0  0  0  0  0  0  0
    1.9233   -0.1123    1.4438 H   0  0  0  0  0  0  0  0  0  0  0  0
    3.2968    0.7196    0.7313 H   0  0  0  0  0  0  0  0  0  0  0  0
    1.5242    1.0482   -1.3002 H   0  0  0  0  0  0  0  0  0  0  0  0
    1.7028    2.1925    0.0238 H   0  0  0  0  0  0  0  0  0  0  0  0
   -0.6294    1.8057   -0.3213 H   0  0  0  0  0  0  0  0  0  0  0  0
   -0.1677    1.1345    1.2429 H   0  0  0  0  0  0  0  0  0  0  0  0
   -0.5172   -0.5017   -1.3200 H   0  0  0  0  0  0  0  0  0  0  0  0
   -0.2081   -1.1515    0.3178 H   0  0  0  0  0  0  0  0  0  0  0  0
  1  2  1  0  0  0  0
  2  3  1  0  0  0  0
  3  4  1  0  0  0  0
  4  5  1  0  0  0  0
  5  6  1  0  0  0  0
  1  7  1  0  0  0  0
  1  8  1  0  0  0  0
  1  9  1  0  0  0  0
  2 10  1  0  0  0  0
  2 11  1  0  0  0  0
  3 12  1  0  0  0  0
  3 13  1  0  0  0  0
  4 14  1  0  0  0  0
  4 15  1  0  0  0  0
  5 16  1  0  0  0  0
  5 17  1  0  0  0  0
M  END
