 xtb: 6.7.1 (edcfbbe)
          04112512243D

 22 21  0     0  0            999 V2000
    2.2252    1.0088   -0.6564 C   0  0  0  0  0  0  0  0  0  0  0  0
    1.1786    0.3481    0.2407 C   0  0  0  0  0  0  0  0  0  0  0  0
    1.7789   -0.8892    0.9252 C   0  0  0  0  0  0  0  0  0  0  0  0
    0.0044    0.0721   -0.5729 N   0  0  0  0  0  0  0  0  0  0  0  0
   -1.2012   -0.3966    0.0989 C   0  0  0  0  0  0  0  0  0  0  0  0
   -2.2043   -0.8198   -0.9733 C   0  0  0  0  0  0  0  0  0  0  0  0
   -1.7969    0.7195    0.9579 C   0  0  0  0  0  0  0  0  0  0  0  0
    1.7904    1.8670   -1.1598 H   0  0  0  0  0  0  0  0  0  0  0  0
    3.0761    1.3373   -0.0663 H   0  0  0  0  0  0  0  0  0  0  0  0
    2.5738    0.3054   -1.4094 H   0  0  0  0  0  0  0  0  0  0  0  0
    0.8791    1.0667    1.0108 H   0  0  0  0  0  0  0  0  0  0  0  0
    2.0504   -1.6362    0.1809 H   0  0  0  0  0  0  0  0  0  0  0  0
    1.0706   -1.3335    1.6209 H   0  0  0  0  0  0  0  0  0  0  0  0
    2.6711   -0.6115    1.4796 H   0  0  0  0  0  0  0  0  0  0  0  0
    0.2600   -0.5913   -1.2984 H   0  0  0  0  0  0  0  0  0  0  0  0
   -1.0037   -1.2708    0.7499 H   0  0  0  0  0  0  0  0  0  0  0  0
   -1.8068   -1.6377   -1.5705 H   0  0  0  0  0  0  0  0  0  0  0  0
   -3.1319   -1.1488   -0.5131 H   0  0  0  0  0  0  0  0  0  0  0  0
   -2.4129    0.0204   -1.6298 H   0  0  0  0  0  0  0  0  0  0  0  0
   -2.7747    0.4204    1.3254 H   0  0  0  0  0  0  0  0  0  0  0  0
   -1.9014    1.6207    0.3605 H   0  0  0  0  0  0  0  0  0  0  0  0
   -1.1646    0.9384    1.8141 H   0  0  0  0  0  0  0  0  0  0  0  0
  1  2  1  0  0  0  0
  2  3  1  0  0  0  0
  2  4  1  0  0  0  0
  4  5  1  0  0  0  0
  5  6  1  0  0  0  0
  5  7  1  0  0  0  0
  1  8  1  0  0  0  0
  1  9  1  0  0  0  0
  1 10  1  0  0  0  0
  2 11  1  0  0  0  0
  3 12  1  0  0  0  0
  3 13  1  0  0  0  0
  3 14  1  0  0  0  0
  4 15  1  0  0  0  0
  5 16  1  0  0  0  0
  6 17  1  0  0  0  0
  6 18  1  0  0  0  0
  6 19  1  0  0  0  0
  7 20  1  0  0  0  0
  7 21  1  0  0  0  0
  7 22  1  0  0  0  0
M  END
