 xtb: 6.7.1 (edcfbbe)
          04112512243D

 22 21  0     0  0            999 V2000
    2.2716    1.1097    0.2186 C   0  0  0  0  0  0  0  0  0  0  0  0
    1.2289   -0.0117    0.2808 C   0  0  0  0  0  0  0  0  0  0  0  0
    1.7781   -1.2670   -0.4065 C   0  0  0  0  0  0  0  0  0  0  0  0
   -0.0093    0.4804   -0.3073 N   0  0  0  0  0  0  0  0  0  0  0  0
   -1.2642    0.1331    0.3324 C   0  0  0  0  0  0  0  0  0  0  0  0
   -1.6370   -1.3561    0.2646 C   0  0  0  0  0  0  0  0  0  0  0  0
   -2.3691    0.9775   -0.3025 C   0  0  0  0  0  0  0  0  0  0  0  0
    1.8890    1.9968    0.7142 H   0  0  0  0  0  0  0  0  0  0  0  0
    3.1926    0.8001    0.7050 H   0  0  0  0  0  0  0  0  0  0  0  0
    2.4865    1.3597   -0.8170 H   0  0  0  0  0  0  0  0  0  0  0  0
    1.0289   -0.2388    1.3351 H   0  0  0  0  0  0  0  0  0  0  0  0
    2.0189   -1.0447   -1.4446 H   0  0  0  0  0  0  0  0  0  0  0  0
    1.0540   -2.0775   -0.3855 H   0  0  0  0  0  0  0  0  0  0  0  0
    2.6841   -1.6021    0.0922 H   0  0  0  0  0  0  0  0  0  0  0  0
   -0.0435    0.2614   -1.2966 H   0  0  0  0  0  0  0  0  0  0  0  0
   -1.1655    0.4202    1.3874 H   0  0  0  0  0  0  0  0  0  0  0  0
   -2.6175   -1.5139    0.7067 H   0  0  0  0  0  0  0  0  0  0  0  0
   -1.6665   -1.6900   -0.7713 H   0  0  0  0  0  0  0  0  0  0  0  0
   -0.9169   -1.9622    0.8094 H   0  0  0  0  0  0  0  0  0  0  0  0
   -2.5185    0.6827   -1.3387 H   0  0  0  0  0  0  0  0  0  0  0  0
   -2.0916    2.0270   -0.2775 H   0  0  0  0  0  0  0  0  0  0  0  0
   -3.3034    0.8448    0.2355 H   0  0  0  0  0  0  0  0  0  0  0  0
  1  2  1  0  0  0  0
  2  3  1  0  0  0  0
  2  4  1  0  0  0  0
  4  5  1  0  0  0  0
  5  6  1  0  0  0  0
  5  7  1  0  0  0  0
  1  8  1  0  0  0  0
  1  9  1  0  0  0  0
  1 10  1  0  0  0  0
  2 11  1  0  0  0  0
  3 12  1  0  0  0  0
  3 13  1  0  0  0  0
  3 14  1  0  0  0  0
  4 15  1  0  0  0  0
  5 16  1  0  0  0  0
  6 17  1  0  0  0  0
  6 18  1  0  0  0  0
  6 19  1  0  0  0  0
  7 20  1  0  0  0  0
  7 21  1  0  0  0  0
  7 22  1  0  0  0  0
M  END
