 xtb: 6.7.1 (edcfbbe)
          04112515533D

 20 19  0     0  0            999 V2000
   -2.4840   -0.7589    1.0354 C   0  0  0  0  0  0  0  0  0  0  0  0
   -2.0661   -0.7770   -0.4299 C   0  0  0  0  0  0  0  0  0  0  0  0
   -1.4067    0.5431   -0.8481 C   0  0  0  0  0  0  0  0  0  0  0  0
   -0.1135    0.7673   -0.1079 C   0  0  0  0  0  0  0  0  0  0  0  0
    0.1113    1.7038    0.6329 O   0  0  0  0  0  0  0  0  0  0  0  0
    0.7733   -0.1840   -0.3603 O   0  0  0  0  0  0  0  0  0  0  0  0
    2.0540   -0.0961    0.2848 C   0  0  0  0  0  0  0  0  0  0  0  0
    2.9576   -1.1597   -0.3082 C   0  0  0  0  0  0  0  0  0  0  0  0
   -1.6224   -0.5902    1.6791 H   0  0  0  0  0  0  0  0  0  0  0  0
   -3.2004    0.0386    1.2181 H   0  0  0  0  0  0  0  0  0  0  0  0
   -2.9411   -1.7051    1.3122 H   0  0  0  0  0  0  0  0  0  0  0  0
   -2.9439   -0.9395   -1.0560 H   0  0  0  0  0  0  0  0  0  0  0  0
   -1.3641   -1.5931   -0.6051 H   0  0  0  0  0  0  0  0  0  0  0  0
   -2.0661    1.3857   -0.6401 H   0  0  0  0  0  0  0  0  0  0  0  0
   -1.1795    0.5125   -1.9143 H   0  0  0  0  0  0  0  0  0  0  0  0
    2.4519    0.9122    0.1291 H   0  0  0  0  0  0  0  0  0  0  0  0
    1.9092   -0.2419    1.3605 H   0  0  0  0  0  0  0  0  0  0  0  0
    3.9311   -1.1097    0.1681 H   0  0  0  0  0  0  0  0  0  0  0  0
    2.5292   -2.1443   -0.1466 H   0  0  0  0  0  0  0  0  0  0  0  0
    3.0719   -0.9982   -1.3760 H   0  0  0  0  0  0  0  0  0  0  0  0
  1  2  1  0  0  0  0
  2  3  1  0  0  0  0
  3  4  1  0  0  0  0
  4  5  2  0  0  0  0
  4  6  1  0  0  0  0
  6  7  1  0  0  0  0
  7  8  1  0  0  0  0
  1  9  1  0  0  0  0
  1 10  1  0  0  0  0
  1 11  1  0  0  0  0
  2 12  1  0  0  0  0
  2 13  1  0  0  0  0
  3 14  1  0  0  0  0
  3 15  1  0  0  0  0
  7 16  1  0  0  0  0
  7 17  1  0  0  0  0
  8 18  1  0  0  0  0
  8 19  1  0  0  0  0
  8 20  1  0  0  0  0
M  END
