 xtb: 6.7.1 (edcfbbe)
          04112515533D

 20 19  0     0  0            999 V2000
   -3.5605   -0.5931    0.4453 C   0  0  0  0  0  0  0  0  0  0  0  0
   -2.2064    0.1027    0.4927 C   0  0  0  0  0  0  0  0  0  0  0  0
   -1.2016   -0.5715   -0.4539 C   0  0  0  0  0  0  0  0  0  0  0  0
    0.1038    0.1743   -0.3941 C   0  0  0  0  0  0  0  0  0  0  0  0
    0.3657    1.1644   -1.0455 O   0  0  0  0  0  0  0  0  0  0  0  0
    0.9244   -0.3532    0.5051 O   0  0  0  0  0  0  0  0  0  0  0  0
    2.2003    0.2731    0.7211 C   0  0  0  0  0  0  0  0  0  0  0  0
    3.2344   -0.2245   -0.2771 C   0  0  0  0  0  0  0  0  0  0  0  0
   -3.4639   -1.6341    0.7421 H   0  0  0  0  0  0  0  0  0  0  0  0
   -4.2559   -0.1035    1.1214 H   0  0  0  0  0  0  0  0  0  0  0  0
   -3.9726   -0.5567   -0.5598 H   0  0  0  0  0  0  0  0  0  0  0  0
   -1.8114    0.0731    1.5100 H   0  0  0  0  0  0  0  0  0  0  0  0
   -2.3162    1.1499    0.2030 H   0  0  0  0  0  0  0  0  0  0  0  0
   -1.5808   -0.5342   -1.4748 H   0  0  0  0  0  0  0  0  0  0  0  0
   -1.0390   -1.6038   -0.1477 H   0  0  0  0  0  0  0  0  0  0  0  0
    2.0751    1.3569    0.6366 H   0  0  0  0  0  0  0  0  0  0  0  0
    2.4698   -0.0000    1.7417 H   0  0  0  0  0  0  0  0  0  0  0  0
    3.3122   -1.3072   -0.2277 H   0  0  0  0  0  0  0  0  0  0  0  0
    2.9471    0.0649   -1.2856 H   0  0  0  0  0  0  0  0  0  0  0  0
    4.1986    0.2160   -0.0454 H   0  0  0  0  0  0  0  0  0  0  0  0
  1  2  1  0  0  0  0
  2  3  1  0  0  0  0
  3  4  1  0  0  0  0
  4  5  2  0  0  0  0
  4  6  1  0  0  0  0
  6  7  1  0  0  0  0
  7  8  1  0  0  0  0
  1  9  1  0  0  0  0
  1 10  1  0  0  0  0
  1 11  1  0  0  0  0
  2 12  1  0  0  0  0
  2 13  1  0  0  0  0
  3 14  1  0  0  0  0
  3 15  1  0  0  0  0
  7 16  1  0  0  0  0
  7 17  1  0  0  0  0
  8 18  1  0  0  0  0
  8 19  1  0  0  0  0
  8 20  1  0  0  0  0
M  END
