 xtb: 6.7.1 (edcfbbe)
          04112512253D

 14 13  0     0  0            999 V2000
   -4.3246   -0.9378   -0.0611 C   0  0  0  0  0  0  0  0  0  0  0  0
   -3.2694    0.0334    0.4549 C   0  0  0  0  0  0  0  0  0  0  0  0
   -1.8681   -0.3728   -0.0054 C   0  0  0  0  0  0  0  0  0  0  0  0
   -0.8383    0.6052    0.5176 C   0  0  0  0  0  0  0  0  0  0  0  0
    1.1803    0.0794   -0.1022 I   0  0  0  0  0  0  0  0  0  0  0  0
   -4.1289   -1.9431    0.3042 H   0  0  0  0  0  0  0  0  0  0  0  0
   -5.3129   -0.6355    0.2747 H   0  0  0  0  0  0  0  0  0  0  0  0
   -4.3221   -0.9613   -1.1482 H   0  0  0  0  0  0  0  0  0  0  0  0
   -3.2989    0.0575    1.5463 H   0  0  0  0  0  0  0  0  0  0  0  0
   -3.4919    1.0395    0.0931 H   0  0  0  0  0  0  0  0  0  0  0  0
   -1.6451   -1.3786    0.3576 H   0  0  0  0  0  0  0  0  0  0  0  0
   -1.8384   -0.3972   -1.0969 H   0  0  0  0  0  0  0  0  0  0  0  0
   -0.8157    0.6227    1.6040 H   0  0  0  0  0  0  0  0  0  0  0  0
   -1.0084    1.6096    0.1388 H   0  0  0  0  0  0  0  0  0  0  0  0
  1  2  1  0  0  0  0
  2  3  1  0  0  0  0
  3  4  1  0  0  0  0
  4  5  1  0  0  0  0
  1  6  1  0  0  0  0
  1  7  1  0  0  0  0
  1  8  1  0  0  0  0
  2  9  1  0  0  0  0
  2 10  1  0  0  0  0
  3 11  1  0  0  0  0
  3 12  1  0  0  0  0
  4 13  1  0  0  0  0
  4 14  1  0  0  0  0
M  END
