 xtb: 6.7.1 (edcfbbe)
          04112515543D

 17 16  0     0  0            999 V2000
    2.4644   -0.5715   -0.8450 C   0  0  0  0  0  0  0  0  0  0  0  0
    2.3676    0.1617    0.4880 C   0  0  0  0  0  0  0  0  0  0  0  0
    0.9390    0.3117    1.0150 C   0  0  0  0  0  0  0  0  0  0  0  0
    0.0335    1.1837    0.1346 C   0  0  0  0  0  0  0  0  0  0  0  0
   -0.8282    0.3912   -0.8333 C   0  0  0  0  0  0  0  0  0  0  0  0
   -2.0587   -0.5844    0.0526 Cl  0  0  0  0  0  0  0  0  0  0  0  0
    2.0143    0.0101   -1.6450 H   0  0  0  0  0  0  0  0  0  0  0  0
    1.9648   -1.5361   -0.7861 H   0  0  0  0  0  0  0  0  0  0  0  0
    3.5074   -0.7442   -1.1005 H   0  0  0  0  0  0  0  0  0  0  0  0
    2.9468   -0.3876    1.2337 H   0  0  0  0  0  0  0  0  0  0  0  0
    2.8174    1.1520    0.3882 H   0  0  0  0  0  0  0  0  0  0  0  0
    0.9969    0.7564    2.0100 H   0  0  0  0  0  0  0  0  0  0  0  0
    0.4876   -0.6756    1.1292 H   0  0  0  0  0  0  0  0  0  0  0  0
    0.6447    1.8712   -0.4530 H   0  0  0  0  0  0  0  0  0  0  0  0
   -0.6244    1.7835    0.7653 H   0  0  0  0  0  0  0  0  0  0  0  0
   -1.3919    1.0486   -1.4927 H   0  0  0  0  0  0  0  0  0  0  0  0
   -0.2495   -0.3221   -1.4143 H   0  0  0  0  0  0  0  0  0  0  0  0
  1  2  1  0  0  0  0
  2  3  1  0  0  0  0
  3  4  1  0  0  0  0
  4  5  1  0  0  0  0
  5  6  1  0  0  0  0
  1  7  1  0  0  0  0
  1  8  1  0  0  0  0
  1  9  1  0  0  0  0
  2 10  1  0  0  0  0
  2 11  1  0  0  0  0
  3 12  1  0  0  0  0
  3 13  1  0  0  0  0
  4 14  1  0  0  0  0
  4 15  1  0  0  0  0
  5 16  1  0  0  0  0
  5 17  1  0  0  0  0
M  END
