 xtb: 6.7.1 (edcfbbe)
          04112515533D

 20 19  0     0  0            999 V2000
   -3.6271   -0.7266    0.2711 C   0  0  0  0  0  0  0  0  0  0  0  0
   -2.3209   -0.3518   -0.4163 C   0  0  0  0  0  0  0  0  0  0  0  0
   -1.2188   -0.0501    0.6024 C   0  0  0  0  0  0  0  0  0  0  0  0
    0.0287    0.4540   -0.0741 C   0  0  0  0  0  0  0  0  0  0  0  0
    0.0538    1.2790   -0.9648 O   0  0  0  0  0  0  0  0  0  0  0  0
    1.1194   -0.1136    0.4210 O   0  0  0  0  0  0  0  0  0  0  0  0
    2.3940    0.2732   -0.1228 C   0  0  0  0  0  0  0  0  0  0  0  0
    3.4237   -0.7563    0.3012 C   0  0  0  0  0  0  0  0  0  0  0  0
   -3.9809    0.0928    0.8915 H   0  0  0  0  0  0  0  0  0  0  0  0
   -4.3893   -0.9516   -0.4696 H   0  0  0  0  0  0  0  0  0  0  0  0
   -3.4880   -1.6018    0.9004 H   0  0  0  0  0  0  0  0  0  0  0  0
   -2.4645    0.5293   -1.0446 H   0  0  0  0  0  0  0  0  0  0  0  0
   -1.9972   -1.1698   -1.0629 H   0  0  0  0  0  0  0  0  0  0  0  0
   -0.9664   -0.9310    1.1914 H   0  0  0  0  0  0  0  0  0  0  0  0
   -1.5620    0.7372    1.2779 H   0  0  0  0  0  0  0  0  0  0  0  0
    2.3005    0.3363   -1.2119 H   0  0  0  0  0  0  0  0  0  0  0  0
    2.6392    1.2692    0.2594 H   0  0  0  0  0  0  0  0  0  0  0  0
    3.4743   -0.8053    1.3847 H   0  0  0  0  0  0  0  0  0  0  0  0
    3.1523   -1.7358   -0.0814 H   0  0  0  0  0  0  0  0  0  0  0  0
    4.3950   -0.4751   -0.0916 H   0  0  0  0  0  0  0  0  0  0  0  0
  1  2  1  0  0  0  0
  2  3  1  0  0  0  0
  3  4  1  0  0  0  0
  4  5  2  0  0  0  0
  4  6  1  0  0  0  0
  6  7  1  0  0  0  0
  7  8  1  0  0  0  0
  1  9  1  0  0  0  0
  1 10  1  0  0  0  0
  1 11  1  0  0  0  0
  2 12  1  0  0  0  0
  2 13  1  0  0  0  0
  3 14  1  0  0  0  0
  3 15  1  0  0  0  0
  7 16  1  0  0  0  0
  7 17  1  0  0  0  0
  8 18  1  0  0  0  0
  8 19  1  0  0  0  0
  8 20  1  0  0  0  0
M  END
