 xtb: 6.7.1 (edcfbbe)
          04112515543D

 31 32  0     0  0            999 V2000
   -3.6353    0.1909    1.8805 C   0  0  0  0  0  0  0  0  0  0  0  0
   -3.0570    0.6004    0.5260 C   0  0  0  0  0  0  0  0  0  0  0  0
   -3.1137    1.6840    0.3964 H   0  0  0  0  0  0  0  0  0  0  0  0
   -1.6118    0.1673    0.3835 C   0  0  0  0  0  0  0  0  0  0  0  0
   -1.2882   -1.2052    0.3955 C   0  0  0  0  0  0  0  0  0  0  0  0
    0.0070   -1.6202    0.2847 C   0  0  0  0  0  0  0  0  0  0  0  0
    1.0587   -0.6859    0.1559 C   0  0  0  0  0  0  0  0  0  0  0  0
    2.4012   -1.0798    0.0431 C   0  0  0  0  0  0  0  0  0  0  0  0
    3.4076   -0.1471   -0.0857 C   0  0  0  0  0  0  0  0  0  0  0  0
    3.0876    1.2251   -0.1049 C   0  0  0  0  0  0  0  0  0  0  0  0
    1.7853    1.6279    0.0037 C   0  0  0  0  0  0  0  0  0  0  0  0
    0.7372    0.6969    0.1362 C   0  0  0  0  0  0  0  0  0  0  0  0
   -0.6114    1.0926    0.2479 C   0  0  0  0  0  0  0  0  0  0  0  0
    4.6770   -0.6393   -0.1885 O   0  0  0  0  0  0  0  0  0  0  0  0
    5.7559    0.2669   -0.3223 C   0  0  0  0  0  0  0  0  0  0  0  0
   -3.8144   -0.0408   -0.6159 C   0  0  0  0  0  0  0  0  0  0  0  0
   -4.3350   -1.1345   -0.5837 O   0  0  0  0  0  0  0  0  0  0  0  0
   -3.8156    0.7202   -1.6992 O   0  0  0  0  0  0  0  0  0  0  0  0
   -2.9982    0.5599    2.6790 H   0  0  0  0  0  0  0  0  0  0  0  0
   -4.6343    0.6017    2.0023 H   0  0  0  0  0  0  0  0  0  0  0  0
   -3.6999   -0.8916    1.9492 H   0  0  0  0  0  0  0  0  0  0  0  0
   -2.0857   -1.9289    0.4798 H   0  0  0  0  0  0  0  0  0  0  0  0
    0.2468   -2.6731    0.2923 H   0  0  0  0  0  0  0  0  0  0  0  0
    2.6601   -2.1273    0.0564 H   0  0  0  0  0  0  0  0  0  0  0  0
    3.8657    1.9644   -0.2052 H   0  0  0  0  0  0  0  0  0  0  0  0
    1.5464    2.6809   -0.0116 H   0  0  0  0  0  0  0  0  0  0  0  0
   -0.8421    2.1479    0.2287 H   0  0  0  0  0  0  0  0  0  0  0  0
    5.8303    0.9258    0.5467 H   0  0  0  0  0  0  0  0  0  0  0  0
    5.6634    0.8615   -1.2348 H   0  0  0  0  0  0  0  0  0  0  0  0
    6.6446   -0.3573   -0.3830 H   0  0  0  0  0  0  0  0  0  0  0  0
   -4.2611    0.2982   -2.4598 H   0  0  0  0  0  0  0  0  0  0  0  0
  1  2  1  0  0  0  0
  2  3  1  0  0  0  0
  2  4  1  0  0  0  0
  4  5  4  0  0  0  0
  5  6  2  0  0  0  0
  6  7  4  0  0  0  0
  7  8  4  0  0  0  0
  8  9  4  0  0  0  0
  9 10  4  0  0  0  0
 10 11  2  0  0  0  0
  7 12  4  0  0  0  0
 11 12  4  0  0  0  0
  4 13  2  0  0  0  0
 12 13  4  0  0  0  0
  9 14  1  0  0  0  0
 14 15  1  0  0  0  0
  2 16  1  0  0  0  0
 16 17  2  0  0  0  0
 16 18  1  0  0  0  0
  1 19  1  0  0  0  0
  1 20  1  0  0  0  0
  1 21  1  0  0  0  0
  5 22  1  0  0  0  0
  6 23  1  0  0  0  0
  8 24  1  0  0  0  0
 10 25  1  0  0  0  0
 11 26  1  0  0  0  0
 13 27  1  0  0  0  0
 15 28  1  0  0  0  0
 15 29  1  0  0  0  0
 15 30  1  0  0  0  0
 18 31  1  0  0  0  0
M  END
