 xtb: 6.7.1 (edcfbbe)
          04112515593D

 20 19  0     0  0            999 V2000
   -1.7956   -1.1920   -0.5828 C   0  0  0  0  0  0  0  0  0  0  0  0
   -2.3666   -0.0618    0.2645 C   0  0  0  0  0  0  0  0  0  0  0  0
   -1.3251    0.6148    1.1554 C   0  0  0  0  0  0  0  0  0  0  0  0
   -0.2604    1.3849    0.3666 C   0  0  0  0  0  0  0  0  0  0  0  0
    0.7802    0.5130   -0.2857 C   0  0  0  0  0  0  0  0  0  0  0  0
    1.1774    0.6565   -1.4260 O   0  0  0  0  0  0  0  0  0  0  0  0
    1.2533   -0.4100    0.5415 O   0  0  0  0  0  0  0  0  0  0  0  0
    2.2736   -1.2930    0.0712 C   0  0  0  0  0  0  0  0  0  0  0  0
   -2.5887   -1.6838   -1.1408 H   0  0  0  0  0  0  0  0  0  0  0  0
   -1.0678   -0.8145   -1.2983 H   0  0  0  0  0  0  0  0  0  0  0  0
   -1.3082   -1.9322    0.0480 H   0  0  0  0  0  0  0  0  0  0  0  0
   -2.8212    0.6852   -0.3897 H   0  0  0  0  0  0  0  0  0  0  0  0
   -3.1538   -0.4654    0.9045 H   0  0  0  0  0  0  0  0  0  0  0  0
   -0.8350   -0.1309    1.7821 H   0  0  0  0  0  0  0  0  0  0  0  0
   -1.8376    1.3231    1.8077 H   0  0  0  0  0  0  0  0  0  0  0  0
    0.2821    2.0406    1.0515 H   0  0  0  0  0  0  0  0  0  0  0  0
   -0.7173    2.0000   -0.4094 H   0  0  0  0  0  0  0  0  0  0  0  0
    2.2284   -1.3704   -1.0157 H   0  0  0  0  0  0  0  0  0  0  0  0
    2.0900   -2.2563    0.5396 H   0  0  0  0  0  0  0  0  0  0  0  0
    3.2465   -0.9032    0.3703 H   0  0  0  0  0  0  0  0  0  0  0  0
  1  2  1  0  0  0  0
  2  3  1  0  0  0  0
  3  4  1  0  0  0  0
  4  5  1  0  0  0  0
  5  6  2  0  0  0  0
  5  7  1  0  0  0  0
  7  8  1  0  0  0  0
  1  9  1  0  0  0  0
  1 10  1  0  0  0  0
  1 11  1  0  0  0  0
  2 12  1  0  0  0  0
  2 13  1  0  0  0  0
  3 14  1  0  0  0  0
  3 15  1  0  0  0  0
  4 16  1  0  0  0  0
  4 17  1  0  0  0  0
  8 18  1  0  0  0  0
  8 19  1  0  0  0  0
  8 20  1  0  0  0  0
M  END
