 xtb: 6.7.1 (edcfbbe)
          04112515533D

 20 19  0     0  0            999 V2000
   -2.0066   -1.5715    0.0384 C   0  0  0  0  0  0  0  0  0  0  0  0
   -2.3780   -0.1010    0.1855 C   0  0  0  0  0  0  0  0  0  0  0  0
   -1.4213    0.8084   -0.5968 C   0  0  0  0  0  0  0  0  0  0  0  0
   -0.0418    0.7547    0.0067 C   0  0  0  0  0  0  0  0  0  0  0  0
    0.2399    1.1472    1.1202 O   0  0  0  0  0  0  0  0  0  0  0  0
    0.8396    0.2211   -0.8296 O   0  0  0  0  0  0  0  0  0  0  0  0
    2.1995    0.0718   -0.3892 C   0  0  0  0  0  0  0  0  0  0  0  0
    2.3840   -1.2139    0.4026 C   0  0  0  0  0  0  0  0  0  0  0  0
   -2.0085   -1.8621   -1.0093 H   0  0  0  0  0  0  0  0  0  0  0  0
   -1.0144   -1.7580    0.4442 H   0  0  0  0  0  0  0  0  0  0  0  0
   -2.7173   -2.1960    0.5731 H   0  0  0  0  0  0  0  0  0  0  0  0
   -2.3482    0.1847    1.2389 H   0  0  0  0  0  0  0  0  0  0  0  0
   -3.3912    0.0593   -0.1841 H   0  0  0  0  0  0  0  0  0  0  0  0
   -1.7724    1.8391   -0.5349 H   0  0  0  0  0  0  0  0  0  0  0  0
   -1.3614    0.4986   -1.6391 H   0  0  0  0  0  0  0  0  0  0  0  0
    2.7854    0.0597   -1.3086 H   0  0  0  0  0  0  0  0  0  0  0  0
    2.4655    0.9401    0.2213 H   0  0  0  0  0  0  0  0  0  0  0  0
    1.7998   -1.1733    1.3196 H   0  0  0  0  0  0  0  0  0  0  0  0
    2.0610   -2.0674   -0.1876 H   0  0  0  0  0  0  0  0  0  0  0  0
    3.4317   -1.3313    0.6593 H   0  0  0  0  0  0  0  0  0  0  0  0
  1  2  1  0  0  0  0
  2  3  1  0  0  0  0
  3  4  1  0  0  0  0
  4  5  2  0  0  0  0
  4  6  1  0  0  0  0
  6  7  1  0  0  0  0
  7  8  1  0  0  0  0
  1  9  1  0  0  0  0
  1 10  1  0  0  0  0
  1 11  1  0  0  0  0
  2 12  1  0  0  0  0
  2 13  1  0  0  0  0
  3 14  1  0  0  0  0
  3 15  1  0  0  0  0
  7 16  1  0  0  0  0
  7 17  1  0  0  0  0
  8 18  1  0  0  0  0
  8 19  1  0  0  0  0
  8 20  1  0  0  0  0
M  END
