 xtb: 6.7.1 (edcfbbe)
          04112515543D

 31 32  0     0  0            999 V2000
   -3.4668    1.9169    0.5609 C   0  0  0  0  0  0  0  0  0  0  0  0
   -3.1458    0.6825   -0.2760 C   0  0  0  0  0  0  0  0  0  0  0  0
   -3.6038    0.7568   -1.2652 H   0  0  0  0  0  0  0  0  0  0  0  0
   -1.6619    0.4181   -0.4516 C   0  0  0  0  0  0  0  0  0  0  0  0
   -1.2212   -0.1928   -1.6444 C   0  0  0  0  0  0  0  0  0  0  0  0
    0.0983   -0.4777   -1.8434 C   0  0  0  0  0  0  0  0  0  0  0  0
    1.0610   -0.1707   -0.8567 C   0  0  0  0  0  0  0  0  0  0  0  0
    2.4260   -0.4488   -1.0280 C   0  0  0  0  0  0  0  0  0  0  0  0
    3.3426   -0.1433   -0.0453 C   0  0  0  0  0  0  0  0  0  0  0  0
    2.9063    0.4597    1.1513 C   0  0  0  0  0  0  0  0  0  0  0  0
    1.5802    0.7377    1.3361 C   0  0  0  0  0  0  0  0  0  0  0  0
    0.6216    0.4349    0.3499 C   0  0  0  0  0  0  0  0  0  0  0  0
   -0.7497    0.7103    0.5276 C   0  0  0  0  0  0  0  0  0  0  0  0
    4.6437   -0.4582   -0.3145 O   0  0  0  0  0  0  0  0  0  0  0  0
    5.6337   -0.1747    0.6561 C   0  0  0  0  0  0  0  0  0  0  0  0
   -3.6651   -0.5807    0.3807 C   0  0  0  0  0  0  0  0  0  0  0  0
   -3.7206   -0.7704    1.5760 O   0  0  0  0  0  0  0  0  0  0  0  0
   -4.0106   -1.4986   -0.5081 O   0  0  0  0  0  0  0  0  0  0  0  0
   -4.5163    2.1770    0.4500 H   0  0  0  0  0  0  0  0  0  0  0  0
   -3.2790    1.7170    1.6128 H   0  0  0  0  0  0  0  0  0  0  0  0
   -2.8576    2.7561    0.2384 H   0  0  0  0  0  0  0  0  0  0  0  0
   -1.9494   -0.4379   -2.4034 H   0  0  0  0  0  0  0  0  0  0  0  0
    0.4263   -0.9436   -2.7606 H   0  0  0  0  0  0  0  0  0  0  0  0
    2.7737   -0.9100   -1.9394 H   0  0  0  0  0  0  0  0  0  0  0  0
    3.6133    0.7054    1.9270 H   0  0  0  0  0  0  0  0  0  0  0  0
    1.2514    1.1993    2.2555 H   0  0  0  0  0  0  0  0  0  0  0  0
   -1.0641    1.1557    1.4585 H   0  0  0  0  0  0  0  0  0  0  0  0
    5.6968    0.8980    0.8565 H   0  0  0  0  0  0  0  0  0  0  0  0
    6.5677   -0.5187    0.2174 H   0  0  0  0  0  0  0  0  0  0  0  0
    5.4445   -0.7173    1.5859 H   0  0  0  0  0  0  0  0  0  0  0  0
   -4.2919   -2.3396   -0.0980 H   0  0  0  0  0  0  0  0  0  0  0  0
  1  2  1  0  0  0  0
  2  3  1  0  0  0  0
  2  4  1  0  0  0  0
  4  5  4  0  0  0  0
  5  6  2  0  0  0  0
  6  7  4  0  0  0  0
  7  8  4  0  0  0  0
  8  9  4  0  0  0  0
  9 10  4  0  0  0  0
 10 11  2  0  0  0  0
  7 12  4  0  0  0  0
 11 12  4  0  0  0  0
  4 13  2  0  0  0  0
 12 13  4  0  0  0  0
  9 14  1  0  0  0  0
 14 15  1  0  0  0  0
  2 16  1  0  0  0  0
 16 17  2  0  0  0  0
 16 18  1  0  0  0  0
  1 19  1  0  0  0  0
  1 20  1  0  0  0  0
  1 21  1  0  0  0  0
  5 22  1  0  0  0  0
  6 23  1  0  0  0  0
  8 24  1  0  0  0  0
 10 25  1  0  0  0  0
 11 26  1  0  0  0  0
 13 27  1  0  0  0  0
 15 28  1  0  0  0  0
 15 29  1  0  0  0  0
 15 30  1  0  0  0  0
 18 31  1  0  0  0  0
M  END
