 xtb: 6.7.1 (edcfbbe)
          04112515593D

 20 19  0     0  0            999 V2000
   -3.3266    0.1323    0.8349 C   0  0  0  0  0  0  0  0  0  0  0  0
   -2.6519   -0.6661   -0.2751 C   0  0  0  0  0  0  0  0  0  0  0  0
   -1.1335   -0.7540   -0.1157 C   0  0  0  0  0  0  0  0  0  0  0  0
   -0.4510    0.6003   -0.2961 C   0  0  0  0  0  0  0  0  0  0  0  0
    1.0524    0.5418   -0.2567 C   0  0  0  0  0  0  0  0  0  0  0  0
    1.7773    1.4212   -0.6799 O   0  0  0  0  0  0  0  0  0  0  0  0
    1.5182   -0.5661    0.3046 O   0  0  0  0  0  0  0  0  0  0  0  0
    2.9367   -0.7076    0.4074 C   0  0  0  0  0  0  0  0  0  0  0  0
   -3.0319    1.1777    0.8020 H   0  0  0  0  0  0  0  0  0  0  0  0
   -4.4073    0.0843    0.7270 H   0  0  0  0  0  0  0  0  0  0  0  0
   -3.0613   -0.2724    1.8088 H   0  0  0  0  0  0  0  0  0  0  0  0
   -3.0549   -1.6806   -0.2740 H   0  0  0  0  0  0  0  0  0  0  0  0
   -2.8888   -0.2172   -1.2418 H   0  0  0  0  0  0  0  0  0  0  0  0
   -0.7380   -1.4496   -0.8580 H   0  0  0  0  0  0  0  0  0  0  0  0
   -0.8924   -1.1520    0.8708 H   0  0  0  0  0  0  0  0  0  0  0  0
   -0.7520    1.2866    0.4990 H   0  0  0  0  0  0  0  0  0  0  0  0
   -0.7358    1.0615   -1.2438 H   0  0  0  0  0  0  0  0  0  0  0  0
    3.1017   -1.6914    0.8353 H   0  0  0  0  0  0  0  0  0  0  0  0
    3.3440    0.0735    1.0507 H   0  0  0  0  0  0  0  0  0  0  0  0
    3.3930   -0.6259   -0.5799 H   0  0  0  0  0  0  0  0  0  0  0  0
  1  2  1  0  0  0  0
  2  3  1  0  0  0  0
  3  4  1  0  0  0  0
  4  5  1  0  0  0  0
  5  6  2  0  0  0  0
  5  7  1  0  0  0  0
  7  8  1  0  0  0  0
  1  9  1  0  0  0  0
  1 10  1  0  0  0  0
  1 11  1  0  0  0  0
  2 12  1  0  0  0  0
  2 13  1  0  0  0  0
  3 14  1  0  0  0  0
  3 15  1  0  0  0  0
  4 16  1  0  0  0  0
  4 17  1  0  0  0  0
  8 18  1  0  0  0  0
  8 19  1  0  0  0  0
  8 20  1  0  0  0  0
M  END
