 xtb: 6.7.1 (edcfbbe)
          04112515533D

 20 19  0     0  0            999 V2000
   -2.3914   -1.1841   -0.5970 C   0  0  0  0  0  0  0  0  0  0  0  0
   -2.0236   -0.5520    0.7400 C   0  0  0  0  0  0  0  0  0  0  0  0
   -1.4282    0.8489    0.5591 C   0  0  0  0  0  0  0  0  0  0  0  0
   -0.1179    0.8064   -0.1844 C   0  0  0  0  0  0  0  0  0  0  0  0
    0.1165    1.4109   -1.2122 O   0  0  0  0  0  0  0  0  0  0  0  0
    0.7722    0.0318    0.4174 O   0  0  0  0  0  0  0  0  0  0  0  0
    2.0683   -0.0974   -0.1886 C   0  0  0  0  0  0  0  0  0  0  0  0
    2.8306   -1.1820    0.5477 C   0  0  0  0  0  0  0  0  0  0  0  0
   -3.1314   -0.5785   -1.1150 H   0  0  0  0  0  0  0  0  0  0  0  0
   -1.5150   -1.2651   -1.2376 H   0  0  0  0  0  0  0  0  0  0  0  0
   -2.8019   -2.1790   -0.4473 H   0  0  0  0  0  0  0  0  0  0  0  0
   -1.2990   -1.1797    1.2597 H   0  0  0  0  0  0  0  0  0  0  0  0
   -2.9159   -0.4717    1.3615 H   0  0  0  0  0  0  0  0  0  0  0  0
   -1.2366    1.2909    1.5380 H   0  0  0  0  0  0  0  0  0  0  0  0
   -2.1104    1.4909    0.0016 H   0  0  0  0  0  0  0  0  0  0  0  0
    1.9349   -0.3381   -1.2487 H   0  0  0  0  0  0  0  0  0  0  0  0
    2.5762    0.8704   -0.1218 H   0  0  0  0  0  0  0  0  0  0  0  0
    3.8229   -1.2771    0.1194 H   0  0  0  0  0  0  0  0  0  0  0  0
    2.9161   -0.9253    1.5993 H   0  0  0  0  0  0  0  0  0  0  0  0
    2.3101   -2.1310    0.4595 H   0  0  0  0  0  0  0  0  0  0  0  0
  1  2  1  0  0  0  0
  2  3  1  0  0  0  0
  3  4  1  0  0  0  0
  4  5  2  0  0  0  0
  4  6  1  0  0  0  0
  6  7  1  0  0  0  0
  7  8  1  0  0  0  0
  1  9  1  0  0  0  0
  1 10  1  0  0  0  0
  1 11  1  0  0  0  0
  2 12  1  0  0  0  0
  2 13  1  0  0  0  0
  3 14  1  0  0  0  0
  3 15  1  0  0  0  0
  7 16  1  0  0  0  0
  7 17  1  0  0  0  0
  8 18  1  0  0  0  0
  8 19  1  0  0  0  0
  8 20  1  0  0  0  0
M  END
