 xtb: 6.7.1 (edcfbbe)
          04112515533D

 20 19  0     0  0            999 V2000
   -3.3666   -1.0550    0.2749 C   0  0  0  0  0  0  0  0  0  0  0  0
   -1.9979   -0.4616    0.5824 C   0  0  0  0  0  0  0  0  0  0  0  0
   -1.3265    0.0728   -0.6919 C   0  0  0  0  0  0  0  0  0  0  0  0
    0.0020    0.6814   -0.3351 C   0  0  0  0  0  0  0  0  0  0  0  0
    0.1889    1.8590   -0.1021 O   0  0  0  0  0  0  0  0  0  0  0  0
    0.9576   -0.2329   -0.2614 O   0  0  0  0  0  0  0  0  0  0  0  0
    2.2725    0.1972    0.1303 C   0  0  0  0  0  0  0  0  0  0  0  0
    3.1271   -1.0349    0.3563 C   0  0  0  0  0  0  0  0  0  0  0  0
   -4.0215   -0.3003   -0.1530 H   0  0  0  0  0  0  0  0  0  0  0  0
   -3.2756   -1.8751   -0.4323 H   0  0  0  0  0  0  0  0  0  0  0  0
   -3.8237   -1.4321    1.1856 H   0  0  0  0  0  0  0  0  0  0  0  0
   -1.3561   -1.2237    1.0279 H   0  0  0  0  0  0  0  0  0  0  0  0
   -2.1013    0.3560    1.2991 H   0  0  0  0  0  0  0  0  0  0  0  0
   -1.9522    0.8410   -1.1452 H   0  0  0  0  0  0  0  0  0  0  0  0
   -1.1670   -0.7463   -1.3918 H   0  0  0  0  0  0  0  0  0  0  0  0
    2.6773    0.8298   -0.6663 H   0  0  0  0  0  0  0  0  0  0  0  0
    2.1826    0.8059    1.0361 H   0  0  0  0  0  0  0  0  0  0  0  0
    2.7036   -1.6430    1.1502 H   0  0  0  0  0  0  0  0  0  0  0  0
    3.1715   -1.6269   -0.5529 H   0  0  0  0  0  0  0  0  0  0  0  0
    4.1300   -0.7296    0.6355 H   0  0  0  0  0  0  0  0  0  0  0  0
  1  2  1  0  0  0  0
  2  3  1  0  0  0  0
  3  4  1  0  0  0  0
  4  5  2  0  0  0  0
  4  6  1  0  0  0  0
  6  7  1  0  0  0  0
  7  8  1  0  0  0  0
  1  9  1  0  0  0  0
  1 10  1  0  0  0  0
  1 11  1  0  0  0  0
  2 12  1  0  0  0  0
  2 13  1  0  0  0  0
  3 14  1  0  0  0  0
  3 15  1  0  0  0  0
  7 16  1  0  0  0  0
  7 17  1  0  0  0  0
  8 18  1  0  0  0  0
  8 19  1  0  0  0  0
  8 20  1  0  0  0  0
M  END
