 xtb: 6.7.1 (edcfbbe)
          04112515593D

 20 19  0     0  0            999 V2000
   -3.8977   -0.2937   -0.3286 C   0  0  0  0  0  0  0  0  0  0  0  0
   -2.7024    0.0401    0.5558 C   0  0  0  0  0  0  0  0  0  0  0  0
   -1.3856   -0.1080   -0.2020 C   0  0  0  0  0  0  0  0  0  0  0  0
   -0.1810    0.1984    0.6878 C   0  0  0  0  0  0  0  0  0  0  0  0
    1.1079    0.1862   -0.0901 C   0  0  0  0  0  0  0  0  0  0  0  0
    1.2366    0.5331   -1.2449 O   0  0  0  0  0  0  0  0  0  0  0  0
    2.1220   -0.2478    0.6530 O   0  0  0  0  0  0  0  0  0  0  0  0
    3.4182   -0.2823    0.0487 C   0  0  0  0  0  0  0  0  0  0  0  0
   -4.8260   -0.1770    0.2246 H   0  0  0  0  0  0  0  0  0  0  0  0
   -3.9262    0.3647   -1.1936 H   0  0  0  0  0  0  0  0  0  0  0  0
   -3.8345   -1.3199   -0.6831 H   0  0  0  0  0  0  0  0  0  0  0  0
   -2.7961    1.0648    0.9203 H   0  0  0  0  0  0  0  0  0  0  0  0
   -2.6956   -0.6236    1.4226 H   0  0  0  0  0  0  0  0  0  0  0  0
   -1.3699    0.5687   -1.0588 H   0  0  0  0  0  0  0  0  0  0  0  0
   -1.2987   -1.1259   -0.5877 H   0  0  0  0  0  0  0  0  0  0  0  0
   -0.0972   -0.5102    1.5113 H   0  0  0  0  0  0  0  0  0  0  0  0
   -0.2881    1.2005    1.1113 H   0  0  0  0  0  0  0  0  0  0  0  0
    3.4054   -0.9391   -0.8218 H   0  0  0  0  0  0  0  0  0  0  0  0
    4.0877   -0.6606    0.8145 H   0  0  0  0  0  0  0  0  0  0  0  0
    3.7089    0.7200   -0.2675 H   0  0  0  0  0  0  0  0  0  0  0  0
  1  2  1  0  0  0  0
  2  3  1  0  0  0  0
  3  4  1  0  0  0  0
  4  5  1  0  0  0  0
  5  6  2  0  0  0  0
  5  7  1  0  0  0  0
  7  8  1  0  0  0  0
  1  9  1  0  0  0  0
  1 10  1  0  0  0  0
  1 11  1  0  0  0  0
  2 12  1  0  0  0  0
  2 13  1  0  0  0  0
  3 14  1  0  0  0  0
  3 15  1  0  0  0  0
  4 16  1  0  0  0  0
  4 17  1  0  0  0  0
  8 18  1  0  0  0  0
  8 19  1  0  0  0  0
  8 20  1  0  0  0  0
M  END
