 xtb: 6.7.1 (edcfbbe)
          04112512253D

 14 13  0     0  0            999 V2000
   -2.6665   -0.9659    0.1534 C   0  0  0  0  0  0  0  0  0  0  0  0
   -2.9128    0.5357    0.2371 C   0  0  0  0  0  0  0  0  0  0  0  0
   -1.7665    1.3916   -0.3059 C   0  0  0  0  0  0  0  0  0  0  0  0
   -0.4879    1.3316    0.5124 C   0  0  0  0  0  0  0  0  0  0  0  0
    0.8924   -0.2529   -0.0696 I   0  0  0  0  0  0  0  0  0  0  0  0
   -2.3855   -1.2535   -0.8575 H   0  0  0  0  0  0  0  0  0  0  0  0
   -1.8777   -1.2783    0.8324 H   0  0  0  0  0  0  0  0  0  0  0  0
   -3.5705   -1.5064    0.4233 H   0  0  0  0  0  0  0  0  0  0  0  0
   -3.1062    0.8144    1.2758 H   0  0  0  0  0  0  0  0  0  0  0  0
   -3.8079    0.7773   -0.3398 H   0  0  0  0  0  0  0  0  0  0  0  0
   -1.5682    1.1229   -1.3452 H   0  0  0  0  0  0  0  0  0  0  0  0
   -2.0957    2.4347   -0.2982 H   0  0  0  0  0  0  0  0  0  0  0  0
   -0.6943    1.1680    1.5667 H   0  0  0  0  0  0  0  0  0  0  0  0
    0.0954    2.2403    0.3934 H   0  0  0  0  0  0  0  0  0  0  0  0
  1  2  1  0  0  0  0
  2  3  1  0  0  0  0
  3  4  1  0  0  0  0
  4  5  1  0  0  0  0
  1  6  1  0  0  0  0
  1  7  1  0  0  0  0
  1  8  1  0  0  0  0
  2  9  1  0  0  0  0
  2 10  1  0  0  0  0
  3 11  1  0  0  0  0
  3 12  1  0  0  0  0
  4 13  1  0  0  0  0
  4 14  1  0  0  0  0
M  END
