 xtb: 6.7.1 (edcfbbe)
          04112515533D

 20 19  0     0  0            999 V2000
   -3.6818   -0.6720    0.3035 C   0  0  0  0  0  0  0  0  0  0  0  0
   -2.4757    0.1417   -0.1474 C   0  0  0  0  0  0  0  0  0  0  0  0
   -1.1670   -0.5280    0.2622 C   0  0  0  0  0  0  0  0  0  0  0  0
    0.0405    0.2517   -0.1855 C   0  0  0  0  0  0  0  0  0  0  0  0
    0.0184    1.2673   -0.8493 O   0  0  0  0  0  0  0  0  0  0  0  0
    1.1660   -0.3125    0.2370 O   0  0  0  0  0  0  0  0  0  0  0  0
    2.4066    0.3214   -0.1195 C   0  0  0  0  0  0  0  0  0  0  0  0
    3.5390   -0.4768    0.4966 C   0  0  0  0  0  0  0  0  0  0  0  0
   -3.6620   -1.6627   -0.1436 H   0  0  0  0  0  0  0  0  0  0  0  0
   -3.6849   -0.7812    1.3851 H   0  0  0  0  0  0  0  0  0  0  0  0
   -4.6021   -0.1779    0.0048 H   0  0  0  0  0  0  0  0  0  0  0  0
   -2.5153    1.1419    0.2878 H   0  0  0  0  0  0  0  0  0  0  0  0
   -2.4888    0.2622   -1.2321 H   0  0  0  0  0  0  0  0  0  0  0  0
   -1.0936   -1.5276   -0.1715 H   0  0  0  0  0  0  0  0  0  0  0  0
   -1.1090   -0.6414    1.3462 H   0  0  0  0  0  0  0  0  0  0  0  0
    2.4773    0.3522   -1.2118 H   0  0  0  0  0  0  0  0  0  0  0  0
    2.3865    1.3523    0.2491 H   0  0  0  0  0  0  0  0  0  0  0  0
    4.4859   -0.0141    0.2392 H   0  0  0  0  0  0  0  0  0  0  0  0
    3.4323   -0.5002    1.5770 H   0  0  0  0  0  0  0  0  0  0  0  0
    3.5227   -1.4955    0.1212 H   0  0  0  0  0  0  0  0  0  0  0  0
  1  2  1  0  0  0  0
  2  3  1  0  0  0  0
  3  4  1  0  0  0  0
  4  5  2  0  0  0  0
  4  6  1  0  0  0  0
  6  7  1  0  0  0  0
  7  8  1  0  0  0  0
  1  9  1  0  0  0  0
  1 10  1  0  0  0  0
  1 11  1  0  0  0  0
  2 12  1  0  0  0  0
  2 13  1  0  0  0  0
  3 14  1  0  0  0  0
  3 15  1  0  0  0  0
  7 16  1  0  0  0  0
  7 17  1  0  0  0  0
  8 18  1  0  0  0  0
  8 19  1  0  0  0  0
  8 20  1  0  0  0  0
M  END
