 xtb: 6.7.1 (edcfbbe)
          04112515563D

 33 35  0     0  0            999 V2000
   -4.6957   -0.9890   -0.2669 C   0  0  0  0  0  0  0  0  0  0  0  0
   -4.0009   -2.1818   -0.1221 C   0  0  0  0  0  0  0  0  0  0  0  0
   -2.6268   -2.1687    0.0292 C   0  0  0  0  0  0  0  0  0  0  0  0
   -1.9223   -0.9664    0.0373 C   0  0  0  0  0  0  0  0  0  0  0  0
   -2.6245    0.2351   -0.1096 C   0  0  0  0  0  0  0  0  0  0  0  0
   -4.0100    0.2109   -0.2601 C   0  0  0  0  0  0  0  0  0  0  0  0
   -1.9186    1.5224   -0.1081 C   0  0  0  0  0  0  0  0  0  0  0  0
   -2.5224    2.5862   -0.2312 O   0  0  0  0  0  0  0  0  0  0  0  0
   -0.4537    1.4775    0.0445 C   0  0  0  0  0  0  0  0  0  0  0  0
    0.2149    2.6891    0.0175 C   0  0  0  0  0  0  0  0  0  0  0  0
    1.6008    2.7317    0.1453 C   0  0  0  0  0  0  0  0  0  0  0  0
    2.3133    1.5738    0.3050 C   0  0  0  0  0  0  0  0  0  0  0  0
    1.6730    0.3114    0.3510 C   0  0  0  0  0  0  0  0  0  0  0  0
    0.2516    0.2616    0.2079 C   0  0  0  0  0  0  0  0  0  0  0  0
   -0.4565   -1.0007    0.2082 C   0  0  0  0  0  0  0  0  0  0  0  0
    0.1062   -2.1024    0.3384 O   0  0  0  0  0  0  0  0  0  0  0  0
    2.3748   -0.8131    0.5513 N   0  0  0  0  0  0  0  0  0  0  0  0
    3.8074   -0.9294    0.6017 C   0  0  0  0  0  0  0  0  0  0  0  0
    4.4405   -0.9088   -0.8059 C   0  0  0  0  0  0  0  0  0  0  0  0
    5.8462   -0.9032   -0.7564 O   0  0  0  0  0  0  0  0  0  0  0  0
   -5.7679   -0.9962   -0.3845 H   0  0  0  0  0  0  0  0  0  0  0  0
   -4.5315   -3.1210   -0.1268 H   0  0  0  0  0  0  0  0  0  0  0  0
   -2.0685   -3.0859    0.1447 H   0  0  0  0  0  0  0  0  0  0  0  0
   -4.5243    1.1541   -0.3708 H   0  0  0  0  0  0  0  0  0  0  0  0
   -0.3639    3.5910   -0.1090 H   0  0  0  0  0  0  0  0  0  0  0  0
    2.1112    3.6814    0.1157 H   0  0  0  0  0  0  0  0  0  0  0  0
    3.3850    1.6231    0.3968 H   0  0  0  0  0  0  0  0  0  0  0  0
    1.8288   -1.6716    0.5059 H   0  0  0  0  0  0  0  0  0  0  0  0
    4.0416   -1.8768    1.0904 H   0  0  0  0  0  0  0  0  0  0  0  0
    4.2419   -0.1228    1.1974 H   0  0  0  0  0  0  0  0  0  0  0  0
    4.1579    0.0101   -1.3252 H   0  0  0  0  0  0  0  0  0  0  0  0
    4.0700   -1.7607   -1.3898 H   0  0  0  0  0  0  0  0  0  0  0  0
    6.1605   -1.7350   -0.3753 H   0  0  0  0  0  0  0  0  0  0  0  0
  1  2  4  0  0  0  0
  2  3  4  0  0  0  0
  3  4  4  0  0  0  0
  4  5  4  0  0  0  0
  1  6  4  0  0  0  0
  5  6  4  0  0  0  0
  5  7  1  0  0  0  0
  7  8  2  0  0  0  0
  7  9  1  0  0  0  0
  9 10  4  0  0  0  0
 10 11  4  0  0  0  0
 11 12  2  0  0  0  0
 12 13  4  0  0  0  0
  9 14  4  0  0  0  0
 13 14  4  0  0  0  0
  4 15  1  0  0  0  0
 14 15  1  0  0  0  0
 15 16  2  0  0  0  0
 13 17  4  0  0  0  0
 17 18  1  0  0  0  0
 18 19  1  0  0  0  0
 19 20  1  0  0  0  0
  1 21  1  0  0  0  0
  2 22  1  0  0  0  0
  3 23  1  0  0  0  0
  6 24  1  0  0  0  0
 10 25  1  0  0  0  0
 11 26  1  0  0  0  0
 12 27  1  0  0  0  0
 17 28  1  0  0  0  0
 18 29  1  0  0  0  0
 18 30  1  0  0  0  0
 19 31  1  0  0  0  0
 19 32  1  0  0  0  0
 20 33  1  0  0  0  0
M  END
