 xtb: 6.7.1 (edcfbbe)
          04112515533D

 20 19  0     0  0            999 V2000
   -3.3810   -0.9726    0.3877 C   0  0  0  0  0  0  0  0  0  0  0  0
   -1.8998   -0.9003    0.0355 C   0  0  0  0  0  0  0  0  0  0  0  0
   -1.3769    0.5283    0.1614 C   0  0  0  0  0  0  0  0  0  0  0  0
    0.0803    0.6957   -0.1822 C   0  0  0  0  0  0  0  0  0  0  0  0
    0.6034    1.7757   -0.3787 O   0  0  0  0  0  0  0  0  0  0  0  0
    0.7338   -0.4547   -0.2458 O   0  0  0  0  0  0  0  0  0  0  0  0
    2.1413   -0.4276   -0.5345 C   0  0  0  0  0  0  0  0  0  0  0  0
    2.9581   -0.2406    0.7349 C   0  0  0  0  0  0  0  0  0  0  0  0
   -3.9628   -0.3365   -0.2749 H   0  0  0  0  0  0  0  0  0  0  0  0
   -3.7424   -1.9925    0.2900 H   0  0  0  0  0  0  0  0  0  0  0  0
   -3.5467   -0.6451    1.4110 H   0  0  0  0  0  0  0  0  0  0  0  0
   -1.7468   -1.2513   -0.9862 H   0  0  0  0  0  0  0  0  0  0  0  0
   -1.3309   -1.5534    0.6978 H   0  0  0  0  0  0  0  0  0  0  0  0
   -1.4987    0.8836    1.1884 H   0  0  0  0  0  0  0  0  0  0  0  0
   -1.9416    1.2103   -0.4777 H   0  0  0  0  0  0  0  0  0  0  0  0
    2.3440   -1.3932   -0.9987 H   0  0  0  0  0  0  0  0  0  0  0  0
    2.3377    0.3843   -1.2414 H   0  0  0  0  0  0  0  0  0  0  0  0
    2.7150   -1.0176    1.4546 H   0  0  0  0  0  0  0  0  0  0  0  0
    4.0147   -0.2927    0.4936 H   0  0  0  0  0  0  0  0  0  0  0  0
    2.7442    0.7309    1.1750 H   0  0  0  0  0  0  0  0  0  0  0  0
  1  2  1  0  0  0  0
  2  3  1  0  0  0  0
  3  4  1  0  0  0  0
  4  5  2  0  0  0  0
  4  6  1  0  0  0  0
  6  7  1  0  0  0  0
  7  8  1  0  0  0  0
  1  9  1  0  0  0  0
  1 10  1  0  0  0  0
  1 11  1  0  0  0  0
  2 12  1  0  0  0  0
  2 13  1  0  0  0  0
  3 14  1  0  0  0  0
  3 15  1  0  0  0  0
  7 16  1  0  0  0  0
  7 17  1  0  0  0  0
  8 18  1  0  0  0  0
  8 19  1  0  0  0  0
  8 20  1  0  0  0  0
M  END
