 xtb: 6.7.1 (edcfbbe)
          04112515593D

 20 19  0     0  0            999 V2000
   -3.3664   -0.5558   -0.4007 C   0  0  0  0  0  0  0  0  0  0  0  0
   -2.6150   -0.0517    0.8266 C   0  0  0  0  0  0  0  0  0  0  0  0
   -1.1045   -0.2761    0.7419 C   0  0  0  0  0  0  0  0  0  0  0  0
   -0.4506    0.5760   -0.3427 C   0  0  0  0  0  0  0  0  0  0  0  0
    1.0493    0.4606   -0.4071 C   0  0  0  0  0  0  0  0  0  0  0  0
    1.7497    1.1894   -1.0838 O   0  0  0  0  0  0  0  0  0  0  0  0
    1.5269   -0.5203    0.3443 O   0  0  0  0  0  0  0  0  0  0  0  0
    2.9382   -0.7518    0.3657 C   0  0  0  0  0  0  0  0  0  0  0  0
   -4.4386   -0.4581   -0.2496 H   0  0  0  0  0  0  0  0  0  0  0  0
   -3.0990    0.0131   -1.2871 H   0  0  0  0  0  0  0  0  0  0  0  0
   -3.1402   -1.6042   -0.5805 H   0  0  0  0  0  0  0  0  0  0  0  0
   -2.8155    1.0126    0.9642 H   0  0  0  0  0  0  0  0  0  0  0  0
   -2.9896   -0.5755    1.7080 H   0  0  0  0  0  0  0  0  0  0  0  0
   -0.9030   -1.3300    0.5456 H   0  0  0  0  0  0  0  0  0  0  0  0
   -0.6537   -0.0283    1.7044 H   0  0  0  0  0  0  0  0  0  0  0  0
   -0.6874    1.6332   -0.2039 H   0  0  0  0  0  0  0  0  0  0  0  0
   -0.8226    0.2946   -1.3305 H   0  0  0  0  0  0  0  0  0  0  0  0
    3.4644    0.1211   -0.0225 H   0  0  0  0  0  0  0  0  0  0  0  0
    3.1574   -1.6225   -0.2513 H   0  0  0  0  0  0  0  0  0  0  0  0
    3.2087   -0.9424    1.4012 H   0  0  0  0  0  0  0  0  0  0  0  0
  1  2  1  0  0  0  0
  2  3  1  0  0  0  0
  3  4  1  0  0  0  0
  4  5  1  0  0  0  0
  5  6  2  0  0  0  0
  5  7  1  0  0  0  0
  7  8  1  0  0  0  0
  1  9  1  0  0  0  0
  1 10  1  0  0  0  0
  1 11  1  0  0  0  0
  2 12  1  0  0  0  0
  2 13  1  0  0  0  0
  3 14  1  0  0  0  0
  3 15  1  0  0  0  0
  4 16  1  0  0  0  0
  4 17  1  0  0  0  0
  8 18  1  0  0  0  0
  8 19  1  0  0  0  0
  8 20  1  0  0  0  0
M  END
