 xtb: 6.7.1 (edcfbbe)
          04112515563D

 33 35  0     0  0            999 V2000
   -4.4607   -1.1924    0.2583 C   0  0  0  0  0  0  0  0  0  0  0  0
   -3.6894   -2.3203    0.0141 C   0  0  0  0  0  0  0  0  0  0  0  0
   -2.3274   -2.1972   -0.1881 C   0  0  0  0  0  0  0  0  0  0  0  0
   -1.7102   -0.9487   -0.1447 C   0  0  0  0  0  0  0  0  0  0  0  0
   -2.4894    0.1868    0.1028 C   0  0  0  0  0  0  0  0  0  0  0  0
   -3.8627    0.0527    0.3000 C   0  0  0  0  0  0  0  0  0  0  0  0
   -1.8762    1.5195    0.1550 C   0  0  0  0  0  0  0  0  0  0  0  0
   -2.5525    2.5310    0.3342 O   0  0  0  0  0  0  0  0  0  0  0  0
   -0.4133    1.5844   -0.0044 C   0  0  0  0  0  0  0  0  0  0  0  0
    0.1731    2.8312    0.1247 C   0  0  0  0  0  0  0  0  0  0  0  0
    1.5519    2.9782   -0.0067 C   0  0  0  0  0  0  0  0  0  0  0  0
    2.3388    1.8885   -0.2616 C   0  0  0  0  0  0  0  0  0  0  0  0
    1.7876    0.5898   -0.3947 C   0  0  0  0  0  0  0  0  0  0  0  0
    0.3703    0.4354   -0.2681 C   0  0  0  0  0  0  0  0  0  0  0  0
   -0.2543   -0.8642   -0.3773 C   0  0  0  0  0  0  0  0  0  0  0  0
    0.3676   -1.9079   -0.6490 O   0  0  0  0  0  0  0  0  0  0  0  0
    2.5570   -0.4661   -0.6788 N   0  0  0  0  0  0  0  0  0  0  0  0
    3.9891   -0.5806   -0.5817 C   0  0  0  0  0  0  0  0  0  0  0  0
    4.3596   -1.7832    0.2891 C   0  0  0  0  0  0  0  0  0  0  0  0
    3.9895   -1.4939    1.6229 O   0  0  0  0  0  0  0  0  0  0  0  0
   -5.5237   -1.2854    0.4152 H   0  0  0  0  0  0  0  0  0  0  0  0
   -4.1512   -3.2946   -0.0195 H   0  0  0  0  0  0  0  0  0  0  0  0
   -1.7111   -3.0623   -0.3834 H   0  0  0  0  0  0  0  0  0  0  0  0
   -4.4376    0.9478    0.4863 H   0  0  0  0  0  0  0  0  0  0  0  0
   -0.4640    3.6791    0.3243 H   0  0  0  0  0  0  0  0  0  0  0  0
    1.9956    3.9570    0.0856 H   0  0  0  0  0  0  0  0  0  0  0  0
    3.4002    2.0229   -0.3841 H   0  0  0  0  0  0  0  0  0  0  0  0
    2.0489   -1.3465   -0.7652 H   0  0  0  0  0  0  0  0  0  0  0  0
    4.4152    0.3099   -0.1216 H   0  0  0  0  0  0  0  0  0  0  0  0
    4.4176   -0.7195   -1.5792 H   0  0  0  0  0  0  0  0  0  0  0  0
    5.4413   -1.9536    0.2194 H   0  0  0  0  0  0  0  0  0  0  0  0
    3.8316   -2.6746   -0.0730 H   0  0  0  0  0  0  0  0  0  0  0  0
    4.1737   -2.2579    2.1837 H   0  0  0  0  0  0  0  0  0  0  0  0
  1  2  4  0  0  0  0
  2  3  4  0  0  0  0
  3  4  4  0  0  0  0
  4  5  4  0  0  0  0
  1  6  4  0  0  0  0
  5  6  4  0  0  0  0
  5  7  1  0  0  0  0
  7  8  2  0  0  0  0
  7  9  1  0  0  0  0
  9 10  4  0  0  0  0
 10 11  4  0  0  0  0
 11 12  2  0  0  0  0
 12 13  4  0  0  0  0
  9 14  4  0  0  0  0
 13 14  4  0  0  0  0
  4 15  1  0  0  0  0
 14 15  1  0  0  0  0
 15 16  2  0  0  0  0
 13 17  4  0  0  0  0
 17 18  1  0  0  0  0
 18 19  1  0  0  0  0
 19 20  1  0  0  0  0
  1 21  1  0  0  0  0
  2 22  1  0  0  0  0
  3 23  1  0  0  0  0
  6 24  1  0  0  0  0
 10 25  1  0  0  0  0
 11 26  1  0  0  0  0
 12 27  1  0  0  0  0
 17 28  1  0  0  0  0
 18 29  1  0  0  0  0
 18 30  1  0  0  0  0
 19 31  1  0  0  0  0
 19 32  1  0  0  0  0
 20 33  1  0  0  0  0
M  END
