 xtb: 6.7.1 (edcfbbe)
          04112512273D

 11 10  0     0  0            999 V2000
    0.0486    1.5170   -0.2681 C   0  0  0  0  0  0  0  0  0  0  0  0
   -1.3231    0.9924    0.1256 C   0  0  0  0  0  0  0  0  0  0  0  0
   -1.5771   -0.7218   -0.3848 Cl  0  0  0  0  0  0  0  0  0  0  0  0
    1.1964    0.9936    0.5807 C   0  0  0  0  0  0  0  0  0  0  0  0
    1.6107   -0.7222    0.1962 Cl  0  0  0  0  0  0  0  0  0  0  0  0
    0.2387    1.3039   -1.3203 H   0  0  0  0  0  0  0  0  0  0  0  0
    0.0246    2.6008   -0.1378 H   0  0  0  0  0  0  0  0  0  0  0  0
   -1.4645    1.0097    1.2044 H   0  0  0  0  0  0  0  0  0  0  0  0
   -2.1085    1.5595   -0.3685 H   0  0  0  0  0  0  0  0  0  0  0  0
    0.9527    1.0142    1.6410 H   0  0  0  0  0  0  0  0  0  0  0  0
    2.1055    1.5593    0.3901 H   0  0  0  0  0  0  0  0  0  0  0  0
  1  2  1  0  0  0  0
  2  3  1  0  0  0  0
  1  4  1  0  0  0  0
  4  5  1  0  0  0  0
  1  6  1  0  0  0  0
  1  7  1  0  0  0  0
  2  8  1  0  0  0  0
  2  9  1  0  0  0  0
  4 10  1  0  0  0  0
  4 11  1  0  0  0  0
M  END
