 xtb: 6.7.1 (edcfbbe)
          04112512293D

 16 15  0     0  0            999 V2000
    1.7953   -0.8192    0.3582 C   0  0  0  0  0  0  0  0  0  0  0  0
    1.2106    0.5650    0.0937 C   0  0  0  0  0  0  0  0  0  0  0  0
    0.0296    0.5374   -0.8868 C   0  0  0  0  0  0  0  0  0  0  0  0
   -1.3433    0.5252   -0.2101 C   0  0  0  0  0  0  0  0  0  0  0  0
   -1.5851   -0.7170    0.5126 N   0  0  0  0  0  0  0  0  0  0  0  0
    1.0291   -1.5079    0.7022 H   0  0  0  0  0  0  0  0  0  0  0  0
    2.2259   -1.2234   -0.5551 H   0  0  0  0  0  0  0  0  0  0  0  0
    2.5791   -0.7631    1.1105 H   0  0  0  0  0  0  0  0  0  0  0  0
    0.8911    1.0170    1.0360 H   0  0  0  0  0  0  0  0  0  0  0  0
    2.0007    1.1995   -0.3135 H   0  0  0  0  0  0  0  0  0  0  0  0
    0.0646    1.4226   -1.5243 H   0  0  0  0  0  0  0  0  0  0  0  0
    0.1091   -0.3416   -1.5264 H   0  0  0  0  0  0  0  0  0  0  0  0
   -2.1127    0.6040   -0.9840 H   0  0  0  0  0  0  0  0  0  0  0  0
   -1.4276    1.4182    0.4351 H   0  0  0  0  0  0  0  0  0  0  0  0
   -2.5335   -0.7235    0.8703 H   0  0  0  0  0  0  0  0  0  0  0  0
   -0.9621   -0.7711    1.3116 H   0  0  0  0  0  0  0  0  0  0  0  0
  1  2  1  0  0  0  0
  2  3  1  0  0  0  0
  3  4  1  0  0  0  0
  4  5  1  0  0  0  0
  1  6  1  0  0  0  0
  1  7  1  0  0  0  0
  1  8  1  0  0  0  0
  2  9  1  0  0  0  0
  2 10  1  0  0  0  0
  3 11  1  0  0  0  0
  3 12  1  0  0  0  0
  4 13  1  0  0  0  0
  4 14  1  0  0  0  0
  5 15  1  0  0  0  0
  5 16  1  0  0  0  0
M  END
