 xtb: 6.7.1 (edcfbbe)
          04112515533D

 20 19  0     0  0            999 V2000
   -2.5345   -1.2953   -0.2316 C   0  0  0  0  0  0  0  0  0  0  0  0
   -2.5518    0.1905    0.1064 C   0  0  0  0  0  0  0  0  0  0  0  0
   -1.2624    0.6239    0.8119 C   0  0  0  0  0  0  0  0  0  0  0  0
   -0.0808    0.5160   -0.1179 C   0  0  0  0  0  0  0  0  0  0  0  0
   -0.0047    1.0523   -1.2048 O   0  0  0  0  0  0  0  0  0  0  0  0
    0.8760   -0.2415    0.3984 O   0  0  0  0  0  0  0  0  0  0  0  0
    2.0999   -0.4297   -0.3329 C   0  0  0  0  0  0  0  0  0  0  0  0
    3.2696   -0.3359    0.6308 C   0  0  0  0  0  0  0  0  0  0  0  0
   -2.3998   -1.8905    0.6684 H   0  0  0  0  0  0  0  0  0  0  0  0
   -3.4685   -1.5872   -0.7040 H   0  0  0  0  0  0  0  0  0  0  0  0
   -1.7196   -1.5192   -0.9177 H   0  0  0  0  0  0  0  0  0  0  0  0
   -3.3985    0.4087    0.7576 H   0  0  0  0  0  0  0  0  0  0  0  0
   -2.6616    0.7746   -0.8093 H   0  0  0  0  0  0  0  0  0  0  0  0
   -1.0715    0.0097    1.6910 H   0  0  0  0  0  0  0  0  0  0  0  0
   -1.3476    1.6700    1.1103 H   0  0  0  0  0  0  0  0  0  0  0  0
    2.0506   -1.4193   -0.7962 H   0  0  0  0  0  0  0  0  0  0  0  0
    2.1553    0.3310   -1.1181 H   0  0  0  0  0  0  0  0  0  0  0  0
    3.1623   -1.0787    1.4157 H   0  0  0  0  0  0  0  0  0  0  0  0
    4.1937   -0.5147    0.0910 H   0  0  0  0  0  0  0  0  0  0  0  0
    3.3069    0.6508    1.0843 H   0  0  0  0  0  0  0  0  0  0  0  0
  1  2  1  0  0  0  0
  2  3  1  0  0  0  0
  3  4  1  0  0  0  0
  4  5  2  0  0  0  0
  4  6  1  0  0  0  0
  6  7  1  0  0  0  0
  7  8  1  0  0  0  0
  1  9  1  0  0  0  0
  1 10  1  0  0  0  0
  1 11  1  0  0  0  0
  2 12  1  0  0  0  0
  2 13  1  0  0  0  0
  3 14  1  0  0  0  0
  3 15  1  0  0  0  0
  7 16  1  0  0  0  0
  7 17  1  0  0  0  0
  8 18  1  0  0  0  0
  8 19  1  0  0  0  0
  8 20  1  0  0  0  0
M  END
