 xtb: 6.7.1 (edcfbbe)
          04112515533D

 20 19  0     0  0            999 V2000
   -3.2567   -1.1744    0.3179 C   0  0  0  0  0  0  0  0  0  0  0  0
   -1.7576   -0.8990    0.3114 C   0  0  0  0  0  0  0  0  0  0  0  0
   -1.4625    0.5087   -0.1982 C   0  0  0  0  0  0  0  0  0  0  0  0
   -0.0012    0.8722   -0.2332 C   0  0  0  0  0  0  0  0  0  0  0  0
    0.4106    1.9696   -0.5614 O   0  0  0  0  0  0  0  0  0  0  0  0
    0.7957   -0.1211    0.1225 O   0  0  0  0  0  0  0  0  0  0  0  0
    2.2144    0.1117    0.1139 C   0  0  0  0  0  0  0  0  0  0  0  0
    2.9179   -1.2319    0.1244 C   0  0  0  0  0  0  0  0  0  0  0  0
   -3.4539   -2.1783    0.6836 H   0  0  0  0  0  0  0  0  0  0  0  0
   -3.7727   -0.4662    0.9616 H   0  0  0  0  0  0  0  0  0  0  0  0
   -3.6657   -1.0872   -0.6856 H   0  0  0  0  0  0  0  0  0  0  0  0
   -1.2522   -1.6269   -0.3243 H   0  0  0  0  0  0  0  0  0  0  0  0
   -1.3586   -1.0086    1.3206 H   0  0  0  0  0  0  0  0  0  0  0  0
   -1.9631    1.2570    0.4210 H   0  0  0  0  0  0  0  0  0  0  0  0
   -1.8456    0.6371   -1.2138 H   0  0  0  0  0  0  0  0  0  0  0  0
    2.4650    0.6999   -0.7750 H   0  0  0  0  0  0  0  0  0  0  0  0
    2.4666    0.7039    0.9994 H   0  0  0  0  0  0  0  0  0  0  0  0
    2.6534   -1.8004   -0.7624 H   0  0  0  0  0  0  0  0  0  0  0  0
    3.9912   -1.0741    0.1407 H   0  0  0  0  0  0  0  0  0  0  0  0
    2.6243   -1.7971    1.0037 H   0  0  0  0  0  0  0  0  0  0  0  0
  1  2  1  0  0  0  0
  2  3  1  0  0  0  0
  3  4  1  0  0  0  0
  4  5  2  0  0  0  0
  4  6  1  0  0  0  0
  6  7  1  0  0  0  0
  7  8  1  0  0  0  0
  1  9  1  0  0  0  0
  1 10  1  0  0  0  0
  1 11  1  0  0  0  0
  2 12  1  0  0  0  0
  2 13  1  0  0  0  0
  3 14  1  0  0  0  0
  3 15  1  0  0  0  0
  7 16  1  0  0  0  0
  7 17  1  0  0  0  0
  8 18  1  0  0  0  0
  8 19  1  0  0  0  0
  8 20  1  0  0  0  0
M  END
