 xtb: 6.7.1 (edcfbbe)
          04112515533D

 20 19  0     0  0            999 V2000
   -3.3172   -1.0860    0.1031 C   0  0  0  0  0  0  0  0  0  0  0  0
   -1.8734   -0.7184    0.4197 C   0  0  0  0  0  0  0  0  0  0  0  0
   -1.3541    0.3652   -0.5377 C   0  0  0  0  0  0  0  0  0  0  0  0
    0.0636    0.7081   -0.1692 C   0  0  0  0  0  0  0  0  0  0  0  0
    0.3856    1.5901    0.6002 O   0  0  0  0  0  0  0  0  0  0  0  0
    0.9298   -0.0976   -0.7702 O   0  0  0  0  0  0  0  0  0  0  0  0
    2.3270    0.0459   -0.4648 C   0  0  0  0  0  0  0  0  0  0  0  0
    2.7065   -0.7711    0.7609 C   0  0  0  0  0  0  0  0  0  0  0  0
   -3.3994   -1.4644   -0.9125 H   0  0  0  0  0  0  0  0  0  0  0  0
   -3.6661   -1.8538    0.7880 H   0  0  0  0  0  0  0  0  0  0  0  0
   -3.9623   -0.2167    0.2013 H   0  0  0  0  0  0  0  0  0  0  0  0
   -1.2395   -1.6026    0.3317 H   0  0  0  0  0  0  0  0  0  0  0  0
   -1.8010   -0.3498    1.4451 H   0  0  0  0  0  0  0  0  0  0  0  0
   -1.9668    1.2616   -0.4469 H   0  0  0  0  0  0  0  0  0  0  0  0
   -1.3775   -0.0074   -1.5608 H   0  0  0  0  0  0  0  0  0  0  0  0
    2.8421   -0.3124   -1.3564 H   0  0  0  0  0  0  0  0  0  0  0  0
    2.5405    1.1067   -0.3017 H   0  0  0  0  0  0  0  0  0  0  0  0
    3.7746   -0.6870    0.9321 H   0  0  0  0  0  0  0  0  0  0  0  0
    2.1782   -0.3972    1.6352 H   0  0  0  0  0  0  0  0  0  0  0  0
    2.4481   -1.8157    0.6102 H   0  0  0  0  0  0  0  0  0  0  0  0
  1  2  1  0  0  0  0
  2  3  1  0  0  0  0
  3  4  1  0  0  0  0
  4  5  2  0  0  0  0
  4  6  1  0  0  0  0
  6  7  1  0  0  0  0
  7  8  1  0  0  0  0
  1  9  1  0  0  0  0
  1 10  1  0  0  0  0
  1 11  1  0  0  0  0
  2 12  1  0  0  0  0
  2 13  1  0  0  0  0
  3 14  1  0  0  0  0
  3 15  1  0  0  0  0
  7 16  1  0  0  0  0
  7 17  1  0  0  0  0
  8 18  1  0  0  0  0
  8 19  1  0  0  0  0
  8 20  1  0  0  0  0
M  END
