 xtb: 6.7.1 (edcfbbe)
          04112515593D

 20 19  0     0  0            999 V2000
   -3.3338   -0.9016    0.4519 C   0  0  0  0  0  0  0  0  0  0  0  0
   -2.8169    0.4683    0.0259 C   0  0  0  0  0  0  0  0  0  0  0  0
   -1.4118    0.4171   -0.5723 C   0  0  0  0  0  0  0  0  0  0  0  0
   -0.3500   -0.0101    0.4406 C   0  0  0  0  0  0  0  0  0  0  0  0
    1.0454    0.2169   -0.0793 C   0  0  0  0  0  0  0  0  0  0  0  0
    1.3656    1.0703   -0.8796 O   0  0  0  0  0  0  0  0  0  0  0  0
    1.9029   -0.6357    0.4723 O   0  0  0  0  0  0  0  0  0  0  0  0
    3.2912   -0.5481    0.1332 C   0  0  0  0  0  0  0  0  0  0  0  0
   -3.2939   -1.5979   -0.3826 H   0  0  0  0  0  0  0  0  0  0  0  0
   -2.7430   -1.3060    1.2689 H   0  0  0  0  0  0  0  0  0  0  0  0
   -4.3657   -0.8255    0.7853 H   0  0  0  0  0  0  0  0  0  0  0  0
   -3.4924    0.8850   -0.7236 H   0  0  0  0  0  0  0  0  0  0  0  0
   -2.8200    1.1423    0.8847 H   0  0  0  0  0  0  0  0  0  0  0  0
   -1.1416    1.4050   -0.9516 H   0  0  0  0  0  0  0  0  0  0  0  0
   -1.4001   -0.2728   -1.4185 H   0  0  0  0  0  0  0  0  0  0  0  0
   -0.4442   -1.0586    0.7187 H   0  0  0  0  0  0  0  0  0  0  0  0
   -0.4487    0.5920    1.3479 H   0  0  0  0  0  0  0  0  0  0  0  0
    3.5635   -1.4505   -0.4117 H   0  0  0  0  0  0  0  0  0  0  0  0
    3.8487   -0.4849    1.0651 H   0  0  0  0  0  0  0  0  0  0  0  0
    3.4661    0.3340   -0.4837 H   0  0  0  0  0  0  0  0  0  0  0  0
  1  2  1  0  0  0  0
  2  3  1  0  0  0  0
  3  4  1  0  0  0  0
  4  5  1  0  0  0  0
  5  6  2  0  0  0  0
  5  7  1  0  0  0  0
  7  8  1  0  0  0  0
  1  9  1  0  0  0  0
  1 10  1  0  0  0  0
  1 11  1  0  0  0  0
  2 12  1  0  0  0  0
  2 13  1  0  0  0  0
  3 14  1  0  0  0  0
  3 15  1  0  0  0  0
  4 16  1  0  0  0  0
  4 17  1  0  0  0  0
  8 18  1  0  0  0  0
  8 19  1  0  0  0  0
  8 20  1  0  0  0  0
M  END
