 xtb: 6.7.1 (edcfbbe)
          04112515533D

 20 19  0     0  0            999 V2000
   -2.5748   -0.4749    1.1300 C   0  0  0  0  0  0  0  0  0  0  0  0
   -2.1071   -0.8280   -0.2767 C   0  0  0  0  0  0  0  0  0  0  0  0
   -1.3694    0.3418   -0.9386 C   0  0  0  0  0  0  0  0  0  0  0  0
   -0.0933    0.6740   -0.2075 C   0  0  0  0  0  0  0  0  0  0  0  0
    0.1585    1.7557    0.2851 O   0  0  0  0  0  0  0  0  0  0  0  0
    0.7316   -0.3614   -0.1713 O   0  0  0  0  0  0  0  0  0  0  0  0
    2.0077   -0.2253    0.4753 C   0  0  0  0  0  0  0  0  0  0  0  0
    3.0726   -0.8744   -0.3914 C   0  0  0  0  0  0  0  0  0  0  0  0
   -3.2582    0.3707    1.1041 H   0  0  0  0  0  0  0  0  0  0  0  0
   -3.0861   -1.3195    1.5840 H   0  0  0  0  0  0  0  0  0  0  0  0
   -1.7289   -0.2042    1.7595 H   0  0  0  0  0  0  0  0  0  0  0  0
   -2.9693   -1.0871   -0.8919 H   0  0  0  0  0  0  0  0  0  0  0  0
   -1.4404   -1.6904   -0.2397 H   0  0  0  0  0  0  0  0  0  0  0  0
   -1.9939    1.2351   -0.9499 H   0  0  0  0  0  0  0  0  0  0  0  0
   -1.1049    0.0715   -1.9617 H   0  0  0  0  0  0  0  0  0  0  0  0
    2.2054    0.8394    0.6348 H   0  0  0  0  0  0  0  0  0  0  0  0
    1.9324   -0.7256    1.4451 H   0  0  0  0  0  0  0  0  0  0  0  0
    2.8224   -1.9166   -0.5661 H   0  0  0  0  0  0  0  0  0  0  0  0
    3.1431   -0.3651   -1.3486 H   0  0  0  0  0  0  0  0  0  0  0  0
    4.0308   -0.8152    0.1143 H   0  0  0  0  0  0  0  0  0  0  0  0
  1  2  1  0  0  0  0
  2  3  1  0  0  0  0
  3  4  1  0  0  0  0
  4  5  2  0  0  0  0
  4  6  1  0  0  0  0
  6  7  1  0  0  0  0
  7  8  1  0  0  0  0
  1  9  1  0  0  0  0
  1 10  1  0  0  0  0
  1 11  1  0  0  0  0
  2 12  1  0  0  0  0
  2 13  1  0  0  0  0
  3 14  1  0  0  0  0
  3 15  1  0  0  0  0
  7 16  1  0  0  0  0
  7 17  1  0  0  0  0
  8 18  1  0  0  0  0
  8 19  1  0  0  0  0
  8 20  1  0  0  0  0
M  END
