 xtb: 6.7.1 (edcfbbe)
          04112512293D

 16 15  0     0  0            999 V2000
    1.9839   -0.6687   -0.1886 C   0  0  0  0  0  0  0  0  0  0  0  0
    1.0763    0.2464    0.6251 C   0  0  0  0  0  0  0  0  0  0  0  0
    0.0271    0.9585   -0.2294 C   0  0  0  0  0  0  0  0  0  0  0  0
   -1.1041    0.0348   -0.6812 C   0  0  0  0  0  0  0  0  0  0  0  0
   -1.8243   -0.4964    0.4692 N   0  0  0  0  0  0  0  0  0  0  0  0
    2.7369   -1.1187    0.4536 H   0  0  0  0  0  0  0  0  0  0  0  0
    1.4131   -1.4684   -0.6524 H   0  0  0  0  0  0  0  0  0  0  0  0
    2.4903   -0.1069   -0.9711 H   0  0  0  0  0  0  0  0  0  0  0  0
    0.5608   -0.3350    1.3898 H   0  0  0  0  0  0  0  0  0  0  0  0
    1.6902    0.9989    1.1247 H   0  0  0  0  0  0  0  0  0  0  0  0
   -0.4085    1.7759    0.3509 H   0  0  0  0  0  0  0  0  0  0  0  0
    0.5018    1.3911   -1.1124 H   0  0  0  0  0  0  0  0  0  0  0  0
   -0.6940   -0.8147   -1.2326 H   0  0  0  0  0  0  0  0  0  0  0  0
   -1.7578    0.5956   -1.3734 H   0  0  0  0  0  0  0  0  0  0  0  0
   -2.5814   -1.0928    0.1564 H   0  0  0  0  0  0  0  0  0  0  0  0
   -2.2323    0.2687    0.9966 H   0  0  0  0  0  0  0  0  0  0  0  0
  1  2  1  0  0  0  0
  2  3  1  0  0  0  0
  3  4  1  0  0  0  0
  4  5  1  0  0  0  0
  1  6  1  0  0  0  0
  1  7  1  0  0  0  0
  1  8  1  0  0  0  0
  2  9  1  0  0  0  0
  2 10  1  0  0  0  0
  3 11  1  0  0  0  0
  3 12  1  0  0  0  0
  4 13  1  0  0  0  0
  4 14  1  0  0  0  0
  5 15  1  0  0  0  0
  5 16  1  0  0  0  0
M  END
