 xtb: 6.7.1 (edcfbbe)
          04112512243D

 22 21  0     0  0            999 V2000
    1.4483    0.2186   -1.3166 C   0  0  0  0  0  0  0  0  0  0  0  0
    1.1021    0.2678    0.1796 C   0  0  0  0  0  0  0  0  0  0  0  0
    2.3280   -0.1427    1.0000 C   0  0  0  0  0  0  0  0  0  0  0  0
    0.0031   -0.5869    0.5968 N   0  0  0  0  0  0  0  0  0  0  0  0
   -1.3804   -0.2821    0.2557 C   0  0  0  0  0  0  0  0  0  0  0  0
   -1.7991   -0.6391   -1.1803 C   0  0  0  0  0  0  0  0  0  0  0  0
   -1.7334    1.1702    0.5668 C   0  0  0  0  0  0  0  0  0  0  0  0
    0.6697    0.6756   -1.9209 H   0  0  0  0  0  0  0  0  0  0  0  0
    2.3754    0.7566   -1.4980 H   0  0  0  0  0  0  0  0  0  0  0  0
    1.5789   -0.8129   -1.6394 H   0  0  0  0  0  0  0  0  0  0  0  0
    0.8387    1.2948    0.4490 H   0  0  0  0  0  0  0  0  0  0  0  0
    3.1493    0.5470    0.8265 H   0  0  0  0  0  0  0  0  0  0  0  0
    2.6487   -1.1440    0.7213 H   0  0  0  0  0  0  0  0  0  0  0  0
    2.0819   -0.1410    2.0576 H   0  0  0  0  0  0  0  0  0  0  0  0
    0.2070   -1.5476    0.3425 H   0  0  0  0  0  0  0  0  0  0  0  0
   -1.9689   -0.9219    0.9304 H   0  0  0  0  0  0  0  0  0  0  0  0
   -1.4679   -1.6442   -1.4343 H   0  0  0  0  0  0  0  0  0  0  0  0
   -2.8826   -0.6039   -1.2642 H   0  0  0  0  0  0  0  0  0  0  0  0
   -1.3805    0.0573   -1.9016 H   0  0  0  0  0  0  0  0  0  0  0  0
   -2.8118    1.2972    0.5272 H   0  0  0  0  0  0  0  0  0  0  0  0
   -1.2839    1.8456   -0.1573 H   0  0  0  0  0  0  0  0  0  0  0  0
   -1.3864    1.4341    1.5620 H   0  0  0  0  0  0  0  0  0  0  0  0
  1  2  1  0  0  0  0
  2  3  1  0  0  0  0
  2  4  1  0  0  0  0
  4  5  1  0  0  0  0
  5  6  1  0  0  0  0
  5  7  1  0  0  0  0
  1  8  1  0  0  0  0
  1  9  1  0  0  0  0
  1 10  1  0  0  0  0
  2 11  1  0  0  0  0
  3 12  1  0  0  0  0
  3 13  1  0  0  0  0
  3 14  1  0  0  0  0
  4 15  1  0  0  0  0
  5 16  1  0  0  0  0
  6 17  1  0  0  0  0
  6 18  1  0  0  0  0
  6 19  1  0  0  0  0
  7 20  1  0  0  0  0
  7 21  1  0  0  0  0
  7 22  1  0  0  0  0
M  END
