 xtb: 6.7.1 (edcfbbe)
          04112512253D

 14 13  0     0  0            999 V2000
   -3.8908   -0.8477   -0.5084 C   0  0  0  0  0  0  0  0  0  0  0  0
   -3.3000    0.0025    0.6112 C   0  0  0  0  0  0  0  0  0  0  0  0
   -1.7970   -0.2167    0.8106 C   0  0  0  0  0  0  0  0  0  0  0  0
   -1.0004    0.3064   -0.3663 C   0  0  0  0  0  0  0  0  0  0  0  0
    1.1430    0.0892   -0.0554 I   0  0  0  0  0  0  0  0  0  0  0  0
   -3.6637   -1.8992   -0.3483 H   0  0  0  0  0  0  0  0  0  0  0  0
   -4.9712   -0.7317   -0.5329 H   0  0  0  0  0  0  0  0  0  0  0  0
   -3.5001   -0.5526   -1.4788 H   0  0  0  0  0  0  0  0  0  0  0  0
   -3.8017   -0.2485    1.5473 H   0  0  0  0  0  0  0  0  0  0  0  0
   -3.4879    1.0587    0.4072 H   0  0  0  0  0  0  0  0  0  0  0  0
   -1.4830    0.3006    1.7201 H   0  0  0  0  0  0  0  0  0  0  0  0
   -1.6008   -1.2823    0.9475 H   0  0  0  0  0  0  0  0  0  0  0  0
   -1.1679    1.3688   -0.5232 H   0  0  0  0  0  0  0  0  0  0  0  0
   -1.2131   -0.2400   -1.2799 H   0  0  0  0  0  0  0  0  0  0  0  0
  1  2  1  0  0  0  0
  2  3  1  0  0  0  0
  3  4  1  0  0  0  0
  4  5  1  0  0  0  0
  1  6  1  0  0  0  0
  1  7  1  0  0  0  0
  1  8  1  0  0  0  0
  2  9  1  0  0  0  0
  2 10  1  0  0  0  0
  3 11  1  0  0  0  0
  3 12  1  0  0  0  0
  4 13  1  0  0  0  0
  4 14  1  0  0  0  0
M  END
