 xtb: 6.7.1 (edcfbbe)
          04112513313D

 31 32  0     0  0            999 V2000
   -3.7173    0.2603   -1.8334 C   0  0  0  0  0  0  0  0  0  0  0  0
   -3.2513   -0.5401   -0.6149 C   0  0  0  0  0  0  0  0  0  0  0  0
   -3.5283   -1.5917   -0.7537 H   0  0  0  0  0  0  0  0  0  0  0  0
   -1.7547   -0.4574   -0.4492 C   0  0  0  0  0  0  0  0  0  0  0  0
   -0.9324   -1.5363   -0.7452 C   0  0  0  0  0  0  0  0  0  0  0  0
    0.4397   -1.4381   -0.6157 C   0  0  0  0  0  0  0  0  0  0  0  0
    1.0490   -0.2603   -0.1868 C   0  0  0  0  0  0  0  0  0  0  0  0
    0.2009    0.8023    0.1080 C   0  0  0  0  0  0  0  0  0  0  0  0
   -1.1701    0.7253   -0.0160 C   0  0  0  0  0  0  0  0  0  0  0  0
    0.7236    1.9790    0.5673 F   0  0  0  0  0  0  0  0  0  0  0  0
    2.5115   -0.1666   -0.0557 C   0  0  0  0  0  0  0  0  0  0  0  0
    3.2052    0.9434   -0.5302 C   0  0  0  0  0  0  0  0  0  0  0  0
    4.5815    1.0110   -0.4126 C   0  0  0  0  0  0  0  0  0  0  0  0
    5.2826   -0.0250    0.1813 C   0  0  0  0  0  0  0  0  0  0  0  0
    4.6002   -1.1329    0.6568 C   0  0  0  0  0  0  0  0  0  0  0  0
    3.2250   -1.2061    0.5373 C   0  0  0  0  0  0  0  0  0  0  0  0
   -3.9380   -0.1101    0.6689 C   0  0  0  0  0  0  0  0  0  0  0  0
   -3.5209   -0.3780    1.7767 O   0  0  0  0  0  0  0  0  0  0  0  0
   -5.0558    0.5625    0.4743 O   0  0  0  0  0  0  0  0  0  0  0  0
   -3.2098   -0.1073   -2.7206 H   0  0  0  0  0  0  0  0  0  0  0  0
   -4.7897    0.1566   -1.9667 H   0  0  0  0  0  0  0  0  0  0  0  0
   -3.4823    1.3138   -1.7095 H   0  0  0  0  0  0  0  0  0  0  0  0
   -1.3680   -2.4641   -1.0819 H   0  0  0  0  0  0  0  0  0  0  0  0
    1.0641   -2.2820   -0.8635 H   0  0  0  0  0  0  0  0  0  0  0  0
   -1.7669    1.5868    0.2408 H   0  0  0  0  0  0  0  0  0  0  0  0
    2.6666    1.7513   -1.0028 H   0  0  0  0  0  0  0  0  0  0  0  0
    5.1075    1.8763   -0.7870 H   0  0  0  0  0  0  0  0  0  0  0  0
    6.3564    0.0315    0.2744 H   0  0  0  0  0  0  0  0  0  0  0  0
    5.1414   -1.9417    1.1241 H   0  0  0  0  0  0  0  0  0  0  0  0
    2.6930   -2.0626    0.9234 H   0  0  0  0  0  0  0  0  0  0  0  0
   -5.5001    0.8080    1.3092 H   0  0  0  0  0  0  0  0  0  0  0  0
  1  2  1  0  0  0  0
  2  3  1  0  0  0  0
  2  4  1  0  0  0  0
  4  5  4  0  0  0  0
  5  6  4  0  0  0  0
  6  7  4  0  0  0  0
  7  8  4  0  0  0  0
  4  9  4  0  0  0  0
  8  9  4  0  0  0  0
  8 10  1  0  0  0  0
  7 11  1  0  0  0  0
 11 12  4  0  0  0  0
 12 13  4  0  0  0  0
 13 14  4  0  0  0  0
 14 15  4  0  0  0  0
 11 16  4  0  0  0  0
 15 16  4  0  0  0  0
  2 17  1  0  0  0  0
 17 18  2  0  0  0  0
 17 19  1  0  0  0  0
  1 20  1  0  0  0  0
  1 21  1  0  0  0  0
  1 22  1  0  0  0  0
  5 23  1  0  0  0  0
  6 24  1  0  0  0  0
  9 25  1  0  0  0  0
 12 26  1  0  0  0  0
 13 27  1  0  0  0  0
 14 28  1  0  0  0  0
 15 29  1  0  0  0  0
 16 30  1  0  0  0  0
 19 31  1  0  0  0  0
M  END
