 xtb: 6.7.1 (edcfbbe)
          04112515543D

 31 32  0     0  0            999 V2000
   -3.5472    0.1308    1.8907 C   0  0  0  0  0  0  0  0  0  0  0  0
   -3.0510    0.5493    0.5056 C   0  0  0  0  0  0  0  0  0  0  0  0
   -3.1862    1.6287    0.3856 H   0  0  0  0  0  0  0  0  0  0  0  0
   -1.5836    0.2113    0.3354 C   0  0  0  0  0  0  0  0  0  0  0  0
   -1.1903   -1.1365    0.2252 C   0  0  0  0  0  0  0  0  0  0  0  0
    0.1277   -1.4711    0.0955 C   0  0  0  0  0  0  0  0  0  0  0  0
    1.1293   -0.4778    0.0733 C   0  0  0  0  0  0  0  0  0  0  0  0
    2.4951   -0.8039   -0.0572 C   0  0  0  0  0  0  0  0  0  0  0  0
    3.4459    0.1861   -0.0738 C   0  0  0  0  0  0  0  0  0  0  0  0
    3.0541    1.5411    0.0406 C   0  0  0  0  0  0  0  0  0  0  0  0
    1.7404    1.8759    0.1665 C   0  0  0  0  0  0  0  0  0  0  0  0
    0.7384    0.8803    0.1865 C   0  0  0  0  0  0  0  0  0  0  0  0
   -0.6282    1.1949    0.3130 C   0  0  0  0  0  0  0  0  0  0  0  0
    4.7892   -0.0096   -0.1944 O   0  0  0  0  0  0  0  0  0  0  0  0
    5.2712   -1.3338   -0.3144 C   0  0  0  0  0  0  0  0  0  0  0  0
   -3.8253   -0.1670   -0.5868 C   0  0  0  0  0  0  0  0  0  0  0  0
   -4.4784   -1.1682   -0.4094 O   0  0  0  0  0  0  0  0  0  0  0  0
   -3.7277    0.3518   -1.8103 O   0  0  0  0  0  0  0  0  0  0  0  0
   -2.9477    0.6106    2.6590 H   0  0  0  0  0  0  0  0  0  0  0  0
   -4.5889    0.4144    2.0176 H   0  0  0  0  0  0  0  0  0  0  0  0
   -3.4743   -0.9473    2.0055 H   0  0  0  0  0  0  0  0  0  0  0  0
   -1.9491   -1.9057    0.2372 H   0  0  0  0  0  0  0  0  0  0  0  0
    0.4189   -2.5075    0.0084 H   0  0  0  0  0  0  0  0  0  0  0  0
    2.7610   -1.8456   -0.1419 H   0  0  0  0  0  0  0  0  0  0  0  0
    3.8321    2.2878    0.0237 H   0  0  0  0  0  0  0  0  0  0  0  0
    1.4495    2.9117    0.2536 H   0  0  0  0  0  0  0  0  0  0  0  0
   -0.9083    2.2346    0.4035 H   0  0  0  0  0  0  0  0  0  0  0  0
    5.0176   -1.9266    0.5684 H   0  0  0  0  0  0  0  0  0  0  0  0
    6.3517   -1.2406   -0.3953 H   0  0  0  0  0  0  0  0  0  0  0  0
    4.8747   -1.8172   -1.2111 H   0  0  0  0  0  0  0  0  0  0  0  0
   -3.1840    1.1583   -1.8609 H   0  0  0  0  0  0  0  0  0  0  0  0
  1  2  1  0  0  0  0
  2  3  1  0  0  0  0
  2  4  1  0  0  0  0
  4  5  4  0  0  0  0
  5  6  2  0  0  0  0
  6  7  4  0  0  0  0
  7  8  4  0  0  0  0
  8  9  4  0  0  0  0
  9 10  4  0  0  0  0
 10 11  2  0  0  0  0
  7 12  4  0  0  0  0
 11 12  4  0  0  0  0
  4 13  2  0  0  0  0
 12 13  4  0  0  0  0
  9 14  1  0  0  0  0
 14 15  1  0  0  0  0
  2 16  1  0  0  0  0
 16 17  2  0  0  0  0
 16 18  1  0  0  0  0
  1 19  1  0  0  0  0
  1 20  1  0  0  0  0
  1 21  1  0  0  0  0
  5 22  1  0  0  0  0
  6 23  1  0  0  0  0
  8 24  1  0  0  0  0
 10 25  1  0  0  0  0
 11 26  1  0  0  0  0
 13 27  1  0  0  0  0
 15 28  1  0  0  0  0
 15 29  1  0  0  0  0
 15 30  1  0  0  0  0
 18 31  1  0  0  0  0
M  END
