 xtb: 6.7.1 (edcfbbe)
          04112515593D

 20 19  0     0  0            999 V2000
   -3.5873   -0.9062    0.6281 C   0  0  0  0  0  0  0  0  0  0  0  0
   -2.6699   -0.0030   -0.1878 C   0  0  0  0  0  0  0  0  0  0  0  0
   -1.2056   -0.1905    0.2038 C   0  0  0  0  0  0  0  0  0  0  0  0
   -0.2893    0.7214   -0.6134 C   0  0  0  0  0  0  0  0  0  0  0  0
    1.1678    0.5873   -0.2546 C   0  0  0  0  0  0  0  0  0  0  0  0
    1.9499    1.5171   -0.2318 O   0  0  0  0  0  0  0  0  0  0  0  0
    1.5077   -0.6639    0.0198 O   0  0  0  0  0  0  0  0  0  0  0  0
    2.8653   -0.9560    0.3634 C   0  0  0  0  0  0  0  0  0  0  0  0
   -3.3294   -1.9510    0.4728 H   0  0  0  0  0  0  0  0  0  0  0  0
   -3.4948   -0.6849    1.6888 H   0  0  0  0  0  0  0  0  0  0  0  0
   -4.6239   -0.7602    0.3359 H   0  0  0  0  0  0  0  0  0  0  0  0
   -2.7915   -0.2263   -1.2494 H   0  0  0  0  0  0  0  0  0  0  0  0
   -2.9549    1.0395   -0.0324 H   0  0  0  0  0  0  0  0  0  0  0  0
   -0.9140   -1.2294    0.0461 H   0  0  0  0  0  0  0  0  0  0  0  0
   -1.0833    0.0334    1.2654 H   0  0  0  0  0  0  0  0  0  0  0  0
   -0.5649    1.7696   -0.4899 H   0  0  0  0  0  0  0  0  0  0  0  0
   -0.3800    0.4739   -1.6742 H   0  0  0  0  0  0  0  0  0  0  0  0
    3.4052   -0.0302    0.5647 H   0  0  0  0  0  0  0  0  0  0  0  0
    3.3253   -1.4837   -0.4711 H   0  0  0  0  0  0  0  0  0  0  0  0
    2.8400   -1.5908    1.2460 H   0  0  0  0  0  0  0  0  0  0  0  0
  1  2  1  0  0  0  0
  2  3  1  0  0  0  0
  3  4  1  0  0  0  0
  4  5  1  0  0  0  0
  5  6  2  0  0  0  0
  5  7  1  0  0  0  0
  7  8  1  0  0  0  0
  1  9  1  0  0  0  0
  1 10  1  0  0  0  0
  1 11  1  0  0  0  0
  2 12  1  0  0  0  0
  2 13  1  0  0  0  0
  3 14  1  0  0  0  0
  3 15  1  0  0  0  0
  4 16  1  0  0  0  0
  4 17  1  0  0  0  0
  8 18  1  0  0  0  0
  8 19  1  0  0  0  0
  8 20  1  0  0  0  0
M  END
