 xtb: 6.7.1 (edcfbbe)
          04112512273D

 13 13  0     0  0            999 V2000
   -2.7581    0.1348    0.0035 C   0  0  0  0  0  0  0  0  0  0  0  0
   -1.3624   -0.4119    0.2803 C   0  0  0  0  0  0  0  0  0  0  0  0
   -0.3015    0.5198   -0.2857 C   0  0  0  0  0  0  0  0  0  0  0  0
    1.0555    0.0383   -0.0540 N   0  0  0  0  0  0  0  0  0  0  0  0
    1.9676    0.7224   -0.4811 O   0  0  0  0  0  0  0  0  0  0  0  0
    1.2195   -1.0037    0.5432 O   0  0  0  0  0  0  0  0  0  0  0  0
   -2.9281    0.2298   -1.0656 H   0  0  0  0  0  0  0  0  0  0  0  0
   -3.5080   -0.5363    0.4108 H   0  0  0  0  0  0  0  0  0  0  0  0
   -2.8863    1.1112    0.4628 H   0  0  0  0  0  0  0  0  0  0  0  0
   -1.2542   -1.4005   -0.1684 H   0  0  0  0  0  0  0  0  0  0  0  0
   -1.2124   -0.5234    1.3551 H   0  0  0  0  0  0  0  0  0  0  0  0
   -0.4124    0.6441   -1.3666 H   0  0  0  0  0  0  0  0  0  0  0  0
   -0.3636    1.5164    0.1608 H   0  0  0  0  0  0  0  0  0  0  0  0
  1  2  1  0  0  0  0
  2  3  1  0  0  0  0
  3  4  1  0  0  0  0
  4  5  4  0  0  0  0
  4  6  4  0  0  0  0
  5  6  1  0  0  0  0
  1  7  1  0  0  0  0
  1  8  1  0  0  0  0
  1  9  1  0  0  0  0
  2 10  1  0  0  0  0
  2 11  1  0  0  0  0
  3 12  1  0  0  0  0
  3 13  1  0  0  0  0
M  END
