 xtb: 6.7.1 (edcfbbe)
          04112512273D

 13 13  0     0  0            999 V2000
   -1.9883    0.6401    0.5769 C   0  0  0  0  0  0  0  0  0  0  0  0
   -1.4903   -0.5746   -0.1965 C   0  0  0  0  0  0  0  0  0  0  0  0
   -0.2165   -0.2599   -0.9878 C   0  0  0  0  0  0  0  0  0  0  0  0
    0.8881   -0.0169   -0.0670 N   0  0  0  0  0  0  0  0  0  0  0  0
    1.4206    1.0746   -0.0827 O   0  0  0  0  0  0  0  0  0  0  0  0
    1.2162   -0.9167    0.6790 O   0  0  0  0  0  0  0  0  0  0  0  0
   -2.1944    1.4678   -0.0973 H   0  0  0  0  0  0  0  0  0  0  0  0
   -2.9026    0.3951    1.1094 H   0  0  0  0  0  0  0  0  0  0  0  0
   -1.2504    0.9693    1.3065 H   0  0  0  0  0  0  0  0  0  0  0  0
   -2.2542   -0.9014   -0.9008 H   0  0  0  0  0  0  0  0  0  0  0  0
   -1.2807   -1.3960    0.4909 H   0  0  0  0  0  0  0  0  0  0  0  0
    0.0543   -1.1221   -1.6001 H   0  0  0  0  0  0  0  0  0  0  0  0
   -0.3365    0.6325   -1.6026 H   0  0  0  0  0  0  0  0  0  0  0  0
  1  2  1  0  0  0  0
  2  3  1  0  0  0  0
  3  4  1  0  0  0  0
  4  5  4  0  0  0  0
  4  6  4  0  0  0  0
  5  6  1  0  0  0  0
  1  7  1  0  0  0  0
  1  8  1  0  0  0  0
  1  9  1  0  0  0  0
  2 10  1  0  0  0  0
  2 11  1  0  0  0  0
  3 12  1  0  0  0  0
  3 13  1  0  0  0  0
M  END
