 xtb: 6.7.1 (edcfbbe)
          04112512273D

 11 10  0     0  0            999 V2000
   -0.0000   -0.1242   -0.0000 C   0  0  0  0  0  0  0  0  0  0  0  0
   -1.2433    0.7468   -0.1129 C   0  0  0  0  0  0  0  0  0  0  0  0
   -2.7069   -0.2879   -0.2477 Cl  0  0  0  0  0  0  0  0  0  0  0  0
    1.2432    0.7468    0.1131 C   0  0  0  0  0  0  0  0  0  0  0  0
    2.7070   -0.2878    0.2477 Cl  0  0  0  0  0  0  0  0  0  0  0  0
   -0.0800   -0.7651    0.8791 H   0  0  0  0  0  0  0  0  0  0  0  0
    0.0799   -0.7647   -0.8793 H   0  0  0  0  0  0  0  0  0  0  0  0
   -1.3840    1.3647    0.7716 H   0  0  0  0  0  0  0  0  0  0  0  0
   -1.2211    1.3662   -1.0074 H   0  0  0  0  0  0  0  0  0  0  0  0
    1.2212    1.3661    1.0076 H   0  0  0  0  0  0  0  0  0  0  0  0
    1.3839    1.3649   -0.7714 H   0  0  0  0  0  0  0  0  0  0  0  0
  1  2  1  0  0  0  0
  2  3  1  0  0  0  0
  1  4  1  0  0  0  0
  4  5  1  0  0  0  0
  1  6  1  0  0  0  0
  1  7  1  0  0  0  0
  2  8  1  0  0  0  0
  2  9  1  0  0  0  0
  4 10  1  0  0  0  0
  4 11  1  0  0  0  0
M  END
