 xtb: 6.7.1 (edcfbbe)
          04112515533D

 20 19  0     0  0            999 V2000
   -3.6818   -0.6755    0.2970 C   0  0  0  0  0  0  0  0  0  0  0  0
   -2.4758    0.1468   -0.1383 C   0  0  0  0  0  0  0  0  0  0  0  0
   -1.1669   -0.5291    0.2605 C   0  0  0  0  0  0  0  0  0  0  0  0
    0.0404    0.2514   -0.1861 C   0  0  0  0  0  0  0  0  0  0  0  0
    0.0186    1.2645   -0.8536 O   0  0  0  0  0  0  0  0  0  0  0  0
    1.1658   -0.3103    0.2405 O   0  0  0  0  0  0  0  0  0  0  0  0
    2.4066    0.3222   -0.1182 C   0  0  0  0  0  0  0  0  0  0  0  0
    3.5390   -0.4767    0.4968 C   0  0  0  0  0  0  0  0  0  0  0  0
   -3.6862   -0.8032    1.3765 H   0  0  0  0  0  0  0  0  0  0  0  0
   -4.6021   -0.1775    0.0054 H   0  0  0  0  0  0  0  0  0  0  0  0
   -3.6602   -1.6584   -0.1669 H   0  0  0  0  0  0  0  0  0  0  0  0
   -2.5169    1.1392    0.3144 H   0  0  0  0  0  0  0  0  0  0  0  0
   -2.4878    0.2864   -1.2207 H   0  0  0  0  0  0  0  0  0  0  0  0
   -1.0977   -1.5245   -0.1835 H   0  0  0  0  0  0  0  0  0  0  0  0
   -1.1045   -0.6532    1.3430 H   0  0  0  0  0  0  0  0  0  0  0  0
    2.4757    0.3523   -1.2106 H   0  0  0  0  0  0  0  0  0  0  0  0
    2.3879    1.3534    0.2498 H   0  0  0  0  0  0  0  0  0  0  0  0
    3.4358   -0.4966    1.5776 H   0  0  0  0  0  0  0  0  0  0  0  0
    3.5189   -1.4965    0.1244 H   0  0  0  0  0  0  0  0  0  0  0  0
    4.4862   -0.0171    0.2348 H   0  0  0  0  0  0  0  0  0  0  0  0
  1  2  1  0  0  0  0
  2  3  1  0  0  0  0
  3  4  1  0  0  0  0
  4  5  2  0  0  0  0
  4  6  1  0  0  0  0
  6  7  1  0  0  0  0
  7  8  1  0  0  0  0
  1  9  1  0  0  0  0
  1 10  1  0  0  0  0
  1 11  1  0  0  0  0
  2 12  1  0  0  0  0
  2 13  1  0  0  0  0
  3 14  1  0  0  0  0
  3 15  1  0  0  0  0
  7 16  1  0  0  0  0
  7 17  1  0  0  0  0
  8 18  1  0  0  0  0
  8 19  1  0  0  0  0
  8 20  1  0  0  0  0
M  END
