 xtb: 6.7.1 (edcfbbe)
          04112512293D

 16 15  0     0  0            999 V2000
    2.4034   -0.3387   -0.3740 C   0  0  0  0  0  0  0  0  0  0  0  0
    1.3248    0.5251    0.2710 C   0  0  0  0  0  0  0  0  0  0  0  0
    0.0067   -0.2397    0.4762 C   0  0  0  0  0  0  0  0  0  0  0  0
   -1.1727    0.4198   -0.2536 C   0  0  0  0  0  0  0  0  0  0  0  0
   -2.4445   -0.2730   -0.1110 N   0  0  0  0  0  0  0  0  0  0  0  0
    2.6284   -1.1998    0.2516 H   0  0  0  0  0  0  0  0  0  0  0  0
    2.0732   -0.6954   -1.3471 H   0  0  0  0  0  0  0  0  0  0  0  0
    3.3179    0.2336   -0.5110 H   0  0  0  0  0  0  0  0  0  0  0  0
    1.6925    0.8964    1.2288 H   0  0  0  0  0  0  0  0  0  0  0  0
    1.1419    1.3944   -0.3640 H   0  0  0  0  0  0  0  0  0  0  0  0
    0.1155   -1.2623    0.1059 H   0  0  0  0  0  0  0  0  0  0  0  0
   -0.2320   -0.3034    1.5408 H   0  0  0  0  0  0  0  0  0  0  0  0
   -0.9500    0.4800   -1.3227 H   0  0  0  0  0  0  0  0  0  0  0  0
   -1.3097    1.4383    0.1207 H   0  0  0  0  0  0  0  0  0  0  0  0
   -2.6887   -0.3340    0.8721 H   0  0  0  0  0  0  0  0  0  0  0  0
   -2.3531   -1.2227   -0.4569 H   0  0  0  0  0  0  0  0  0  0  0  0
  1  2  1  0  0  0  0
  2  3  1  0  0  0  0
  3  4  1  0  0  0  0
  4  5  1  0  0  0  0
  1  6  1  0  0  0  0
  1  7  1  0  0  0  0
  1  8  1  0  0  0  0
  2  9  1  0  0  0  0
  2 10  1  0  0  0  0
  3 11  1  0  0  0  0
  3 12  1  0  0  0  0
  4 13  1  0  0  0  0
  4 14  1  0  0  0  0
  5 15  1  0  0  0  0
  5 16  1  0  0  0  0
M  END
