 xtb: 6.7.1 (edcfbbe)
          04112515543D

 17 16  0     0  0            999 V2000
    2.4636   -1.0930    0.1450 C   0  0  0  0  0  0  0  0  0  0  0  0
    2.5630    0.4043   -0.1213 C   0  0  0  0  0  0  0  0  0  0  0  0
    1.3735    1.2094    0.4052 C   0  0  0  0  0  0  0  0  0  0  0  0
    0.0380    0.8727   -0.2776 C   0  0  0  0  0  0  0  0  0  0  0  0
   -0.7890   -0.0975    0.5488 C   0  0  0  0  0  0  0  0  0  0  0  0
   -2.3307   -0.4900   -0.2953 Cl  0  0  0  0  0  0  0  0  0  0  0  0
    3.3827   -1.5880   -0.1600 H   0  0  0  0  0  0  0  0  0  0  0  0
    1.6442   -1.5359   -0.4147 H   0  0  0  0  0  0  0  0  0  0  0  0
    2.3093   -1.2829    1.2048 H   0  0  0  0  0  0  0  0  0  0  0  0
    3.4686    0.7866    0.3550 H   0  0  0  0  0  0  0  0  0  0  0  0
    2.6617    0.5731   -1.1957 H   0  0  0  0  0  0  0  0  0  0  0  0
    1.5904    2.2662    0.2446 H   0  0  0  0  0  0  0  0  0  0  0  0
    1.2806    1.0542    1.4813 H   0  0  0  0  0  0  0  0  0  0  0  0
    0.2241    0.4462   -1.2642 H   0  0  0  0  0  0  0  0  0  0  0  0
   -0.5450    1.7841   -0.4186 H   0  0  0  0  0  0  0  0  0  0  0  0
   -0.2811   -1.0461    0.7045 H   0  0  0  0  0  0  0  0  0  0  0  0
   -1.0724    0.3368    1.5060 H   0  0  0  0  0  0  0  0  0  0  0  0
  1  2  1  0  0  0  0
  2  3  1  0  0  0  0
  3  4  1  0  0  0  0
  4  5  1  0  0  0  0
  5  6  1  0  0  0  0
  1  7  1  0  0  0  0
  1  8  1  0  0  0  0
  1  9  1  0  0  0  0
  2 10  1  0  0  0  0
  2 11  1  0  0  0  0
  3 12  1  0  0  0  0
  3 13  1  0  0  0  0
  4 14  1  0  0  0  0
  4 15  1  0  0  0  0
  5 16  1  0  0  0  0
  5 17  1  0  0  0  0
M  END
