 xtb: 6.7.1 (edcfbbe)
          04112515533D

 20 19  0     0  0            999 V2000
   -3.0064   -0.5967   -0.7837 C   0  0  0  0  0  0  0  0  0  0  0  0
   -2.4981    0.3747    0.2748 C   0  0  0  0  0  0  0  0  0  0  0  0
   -1.1940   -0.0969    0.9277 C   0  0  0  0  0  0  0  0  0  0  0  0
    0.0089    0.0577    0.0321 C   0  0  0  0  0  0  0  0  0  0  0  0
    0.0464   -0.1631   -1.1595 O   0  0  0  0  0  0  0  0  0  0  0  0
    1.0598    0.4843    0.7279 O   0  0  0  0  0  0  0  0  0  0  0  0
    2.3153    0.6458    0.0468 C   0  0  0  0  0  0  0  0  0  0  0  0
    3.1037   -0.6550    0.0362 C   0  0  0  0  0  0  0  0  0  0  0  0
   -3.9169   -0.2159   -1.2387 H   0  0  0  0  0  0  0  0  0  0  0  0
   -2.2591   -0.7287   -1.5615 H   0  0  0  0  0  0  0  0  0  0  0  0
   -3.2206   -1.5663   -0.3402 H   0  0  0  0  0  0  0  0  0  0  0  0
   -3.2509    0.4837    1.0569 H   0  0  0  0  0  0  0  0  0  0  0  0
   -2.3387    1.3551   -0.1781 H   0  0  0  0  0  0  0  0  0  0  0  0
   -1.2781   -1.1575    1.1764 H   0  0  0  0  0  0  0  0  0  0  0  0
   -0.9926    0.4558    1.8451 H   0  0  0  0  0  0  0  0  0  0  0  0
    2.1170    0.9854   -0.9744 H   0  0  0  0  0  0  0  0  0  0  0  0
    2.8360    1.4210    0.6098 H   0  0  0  0  0  0  0  0  0  0  0  0
    3.2437   -1.0154    1.0517 H   0  0  0  0  0  0  0  0  0  0  0  0
    2.5701   -1.4095   -0.5377 H   0  0  0  0  0  0  0  0  0  0  0  0
    4.0728   -0.4846   -0.4212 H   0  0  0  0  0  0  0  0  0  0  0  0
  1  2  1  0  0  0  0
  2  3  1  0  0  0  0
  3  4  1  0  0  0  0
  4  5  2  0  0  0  0
  4  6  1  0  0  0  0
  6  7  1  0  0  0  0
  7  8  1  0  0  0  0
  1  9  1  0  0  0  0
  1 10  1  0  0  0  0
  1 11  1  0  0  0  0
  2 12  1  0  0  0  0
  2 13  1  0  0  0  0
  3 14  1  0  0  0  0
  3 15  1  0  0  0  0
  7 16  1  0  0  0  0
  7 17  1  0  0  0  0
  8 18  1  0  0  0  0
  8 19  1  0  0  0  0
  8 20  1  0  0  0  0
M  END
