 xtb: 6.7.1 (edcfbbe)
          04112512293D

 16 15  0     0  0            999 V2000
    1.6570   -0.7539    0.5140 C   0  0  0  0  0  0  0  0  0  0  0  0
    1.3647    0.5319   -0.2512 C   0  0  0  0  0  0  0  0  0  0  0  0
   -0.0350    0.5830   -0.8673 C   0  0  0  0  0  0  0  0  0  0  0  0
   -1.1776    0.5586    0.1559 C   0  0  0  0  0  0  0  0  0  0  0  0
   -1.7121   -0.7897    0.3107 N   0  0  0  0  0  0  0  0  0  0  0  0
    1.0392   -0.8265    1.4061 H   0  0  0  0  0  0  0  0  0  0  0  0
    1.4709   -1.6215   -0.1152 H   0  0  0  0  0  0  0  0  0  0  0  0
    2.6981   -0.7749    0.8285 H   0  0  0  0  0  0  0  0  0  0  0  0
    1.4922    1.3867    0.4180 H   0  0  0  0  0  0  0  0  0  0  0  0
    2.0941    0.6348   -1.0577 H   0  0  0  0  0  0  0  0  0  0  0  0
   -0.1099    1.4980   -1.4570 H   0  0  0  0  0  0  0  0  0  0  0  0
   -0.1726   -0.2616   -1.5437 H   0  0  0  0  0  0  0  0  0  0  0  0
   -2.0031    1.1794   -0.2048 H   0  0  0  0  0  0  0  0  0  0  0  0
   -0.8262    0.9976    1.1056 H   0  0  0  0  0  0  0  0  0  0  0  0
   -2.4607   -0.7860    0.9942 H   0  0  0  0  0  0  0  0  0  0  0  0
   -0.9875   -1.4112    0.6533 H   0  0  0  0  0  0  0  0  0  0  0  0
  1  2  1  0  0  0  0
  2  3  1  0  0  0  0
  3  4  1  0  0  0  0
  4  5  1  0  0  0  0
  1  6  1  0  0  0  0
  1  7  1  0  0  0  0
  1  8  1  0  0  0  0
  2  9  1  0  0  0  0
  2 10  1  0  0  0  0
  3 11  1  0  0  0  0
  3 12  1  0  0  0  0
  4 13  1  0  0  0  0
  4 14  1  0  0  0  0
  5 15  1  0  0  0  0
  5 16  1  0  0  0  0
M  END
