 xtb: 6.7.1 (edcfbbe)
          04112515533D

 20 19  0     0  0            999 V2000
   -3.6385   -0.6185    0.2376 C   0  0  0  0  0  0  0  0  0  0  0  0
   -2.3054   -0.3086   -0.4308 C   0  0  0  0  0  0  0  0  0  0  0  0
   -1.1983   -0.1031    0.6002 C   0  0  0  0  0  0  0  0  0  0  0  0
    0.1062    0.3010   -0.0347 C   0  0  0  0  0  0  0  0  0  0  0  0
    0.2344    0.7280   -1.1623 O   0  0  0  0  0  0  0  0  0  0  0  0
    1.1188    0.1524    0.8146 O   0  0  0  0  0  0  0  0  0  0  0  0
    2.4402    0.5066    0.3720 C   0  0  0  0  0  0  0  0  0  0  0  0
    3.1035   -0.6499   -0.3601 C   0  0  0  0  0  0  0  0  0  0  0  0
   -4.4092   -0.7708   -0.5128 H   0  0  0  0  0  0  0  0  0  0  0  0
   -3.5616   -1.5197    0.8406 H   0  0  0  0  0  0  0  0  0  0  0  0
   -3.9426    0.2029    0.8814 H   0  0  0  0  0  0  0  0  0  0  0  0
   -2.3910    0.5927   -1.0405 H   0  0  0  0  0  0  0  0  0  0  0  0
   -2.0257   -1.1258   -1.0984 H   0  0  0  0  0  0  0  0  0  0  0  0
   -1.0289   -1.0050    1.1894 H   0  0  0  0  0  0  0  0  0  0  0  0
   -1.4768    0.6938    1.2944 H   0  0  0  0  0  0  0  0  0  0  0  0
    2.3668    1.3826   -0.2796 H   0  0  0  0  0  0  0  0  0  0  0  0
    2.9770    0.7578    1.2871 H   0  0  0  0  0  0  0  0  0  0  0  0
    4.1203   -0.3747   -0.6206 H   0  0  0  0  0  0  0  0  0  0  0  0
    3.1208   -1.5330    0.2728 H   0  0  0  0  0  0  0  0  0  0  0  0
    2.5547   -0.8770   -1.2715 H   0  0  0  0  0  0  0  0  0  0  0  0
  1  2  1  0  0  0  0
  2  3  1  0  0  0  0
  3  4  1  0  0  0  0
  4  5  2  0  0  0  0
  4  6  1  0  0  0  0
  6  7  1  0  0  0  0
  7  8  1  0  0  0  0
  1  9  1  0  0  0  0
  1 10  1  0  0  0  0
  1 11  1  0  0  0  0
  2 12  1  0  0  0  0
  2 13  1  0  0  0  0
  3 14  1  0  0  0  0
  3 15  1  0  0  0  0
  7 16  1  0  0  0  0
  7 17  1  0  0  0  0
  8 18  1  0  0  0  0
  8 19  1  0  0  0  0
  8 20  1  0  0  0  0
M  END
