 xtb: 6.7.1 (edcfbbe)
          04112512273D

 11 10  0     0  0            999 V2000
   -0.0422    0.9039    0.2836 C   0  0  0  0  0  0  0  0  0  0  0  0
   -0.8640   -0.3758    0.2578 C   0  0  0  0  0  0  0  0  0  0  0  0
   -2.4950   -0.0541   -0.4202 Cl  0  0  0  0  0  0  0  0  0  0  0  0
    1.3380    0.6684    0.8741 C   0  0  0  0  0  0  0  0  0  0  0  0
    2.3130   -0.4318   -0.1684 Cl  0  0  0  0  0  0  0  0  0  0  0  0
    0.0498    1.2990   -0.7287 H   0  0  0  0  0  0  0  0  0  0  0  0
   -0.5487    1.6495    0.8984 H   0  0  0  0  0  0  0  0  0  0  0  0
   -0.4065   -1.1301   -0.3800 H   0  0  0  0  0  0  0  0  0  0  0  0
   -1.0186   -0.7736    1.2593 H   0  0  0  0  0  0  0  0  0  0  0  0
    1.2828    0.1905    1.8499 H   0  0  0  0  0  0  0  0  0  0  0  0
    1.8988    1.5981    0.9365 H   0  0  0  0  0  0  0  0  0  0  0  0
  1  2  1  0  0  0  0
  2  3  1  0  0  0  0
  1  4  1  0  0  0  0
  4  5  1  0  0  0  0
  1  6  1  0  0  0  0
  1  7  1  0  0  0  0
  2  8  1  0  0  0  0
  2  9  1  0  0  0  0
  4 10  1  0  0  0  0
  4 11  1  0  0  0  0
M  END
