 xtb: 6.7.1 (edcfbbe)
          04112515593D

 20 19  0     0  0            999 V2000
   -3.4482   -0.4780   -0.4189 C   0  0  0  0  0  0  0  0  0  0  0  0
   -2.7018    0.1887    0.7308 C   0  0  0  0  0  0  0  0  0  0  0  0
   -1.2893    0.6360    0.3551 C   0  0  0  0  0  0  0  0  0  0  0  0
   -0.3529   -0.5441    0.0652 C   0  0  0  0  0  0  0  0  0  0  0  0
    1.0130   -0.0350   -0.3053 C   0  0  0  0  0  0  0  0  0  0  0  0
    1.2598    0.6678   -1.2634 O   0  0  0  0  0  0  0  0  0  0  0  0
    1.9408   -0.4332    0.5586 O   0  0  0  0  0  0  0  0  0  0  0  0
    3.2866   -0.0060    0.3306 C   0  0  0  0  0  0  0  0  0  0  0  0
   -3.4560    0.1697   -1.2925 H   0  0  0  0  0  0  0  0  0  0  0  0
   -2.9862   -1.4224   -0.6931 H   0  0  0  0  0  0  0  0  0  0  0  0
   -4.4770   -0.6780   -0.1306 H   0  0  0  0  0  0  0  0  0  0  0  0
   -3.2610    1.0700    1.0504 H   0  0  0  0  0  0  0  0  0  0  0  0
   -2.6490   -0.4969    1.5784 H   0  0  0  0  0  0  0  0  0  0  0  0
   -0.8715    1.2211    1.1774 H   0  0  0  0  0  0  0  0  0  0  0  0
   -1.3250    1.2785   -0.5271 H   0  0  0  0  0  0  0  0  0  0  0  0
   -0.7376   -1.1125   -0.7818 H   0  0  0  0  0  0  0  0  0  0  0  0
   -0.2645   -1.1919    0.9363 H   0  0  0  0  0  0  0  0  0  0  0  0
    3.6167   -0.3272   -0.6580 H   0  0  0  0  0  0  0  0  0  0  0  0
    3.8784   -0.4720    1.1118 H   0  0  0  0  0  0  0  0  0  0  0  0
    3.3465    1.0813    0.3882 H   0  0  0  0  0  0  0  0  0  0  0  0
  1  2  1  0  0  0  0
  2  3  1  0  0  0  0
  3  4  1  0  0  0  0
  4  5  1  0  0  0  0
  5  6  2  0  0  0  0
  5  7  1  0  0  0  0
  7  8  1  0  0  0  0
  1  9  1  0  0  0  0
  1 10  1  0  0  0  0
  1 11  1  0  0  0  0
  2 12  1  0  0  0  0
  2 13  1  0  0  0  0
  3 14  1  0  0  0  0
  3 15  1  0  0  0  0
  4 16  1  0  0  0  0
  4 17  1  0  0  0  0
  8 18  1  0  0  0  0
  8 19  1  0  0  0  0
  8 20  1  0  0  0  0
M  END
