 xtb: 6.7.1 (edcfbbe)
          04112515533D

 20 19  0     0  0            999 V2000
   -3.6505   -0.4774    0.3618 C   0  0  0  0  0  0  0  0  0  0  0  0
   -2.3555    0.2524    0.0297 C   0  0  0  0  0  0  0  0  0  0  0  0
   -1.1505   -0.6808    0.1170 C   0  0  0  0  0  0  0  0  0  0  0  0
    0.1307    0.0013   -0.2846 C   0  0  0  0  0  0  0  0  0  0  0  0
    0.2075    1.0621   -0.8671 O   0  0  0  0  0  0  0  0  0  0  0  0
    1.1897   -0.7240    0.0640 O   0  0  0  0  0  0  0  0  0  0  0  0
    2.4981   -0.2197   -0.2539 C   0  0  0  0  0  0  0  0  0  0  0  0
    2.9956    0.7361    0.8197 C   0  0  0  0  0  0  0  0  0  0  0  0
   -3.6094   -0.8873    1.3679 H   0  0  0  0  0  0  0  0  0  0  0  0
   -4.4932    0.2057    0.3024 H   0  0  0  0  0  0  0  0  0  0  0  0
   -3.8186   -1.2931   -0.3368 H   0  0  0  0  0  0  0  0  0  0  0  0
   -2.2118    1.0871    0.7184 H   0  0  0  0  0  0  0  0  0  0  0  0
   -2.4068    0.6696   -0.9776 H   0  0  0  0  0  0  0  0  0  0  0  0
   -1.2852   -1.5331   -0.5536 H   0  0  0  0  0  0  0  0  0  0  0  0
   -1.0259   -1.0766    1.1256 H   0  0  0  0  0  0  0  0  0  0  0  0
    3.1259   -1.1089   -0.3164 H   0  0  0  0  0  0  0  0  0  0  0  0
    2.4518    0.2832   -1.2247 H   0  0  0  0  0  0  0  0  0  0  0  0
    2.3578    1.6165    0.8583 H   0  0  0  0  0  0  0  0  0  0  0  0
    2.9848    0.2475    1.7902 H   0  0  0  0  0  0  0  0  0  0  0  0
    4.0087    1.0453    0.5844 H   0  0  0  0  0  0  0  0  0  0  0  0
  1  2  1  0  0  0  0
  2  3  1  0  0  0  0
  3  4  1  0  0  0  0
  4  5  2  0  0  0  0
  4  6  1  0  0  0  0
  6  7  1  0  0  0  0
  7  8  1  0  0  0  0
  1  9  1  0  0  0  0
  1 10  1  0  0  0  0
  1 11  1  0  0  0  0
  2 12  1  0  0  0  0
  2 13  1  0  0  0  0
  3 14  1  0  0  0  0
  3 15  1  0  0  0  0
  7 16  1  0  0  0  0
  7 17  1  0  0  0  0
  8 18  1  0  0  0  0
  8 19  1  0  0  0  0
  8 20  1  0  0  0  0
M  END
