 xtb: 6.7.1 (edcfbbe)
          04112515593D

 20 19  0     0  0            999 V2000
   -2.3093   -1.3034   -0.1856 C   0  0  0  0  0  0  0  0  0  0  0  0
   -1.9115   -0.2107    0.8009 C   0  0  0  0  0  0  0  0  0  0  0  0
   -1.5574    1.1159    0.1269 C   0  0  0  0  0  0  0  0  0  0  0  0
   -0.3704    1.0091   -0.8400 C   0  0  0  0  0  0  0  0  0  0  0  0
    0.8495    0.4981   -0.1211 C   0  0  0  0  0  0  0  0  0  0  0  0
    1.4200    1.0722    0.7829 O   0  0  0  0  0  0  0  0  0  0  0  0
    1.2399   -0.6812   -0.5937 O   0  0  0  0  0  0  0  0  0  0  0  0
    2.3863   -1.2950    0.0003 C   0  0  0  0  0  0  0  0  0  0  0  0
   -1.4609   -1.6076   -0.7928 H   0  0  0  0  0  0  0  0  0  0  0  0
   -2.6702   -2.1771    0.3512 H   0  0  0  0  0  0  0  0  0  0  0  0
   -3.1020   -0.9511   -0.8411 H   0  0  0  0  0  0  0  0  0  0  0  0
   -2.7405   -0.0308    1.4887 H   0  0  0  0  0  0  0  0  0  0  0  0
   -1.0605   -0.5489    1.3980 H   0  0  0  0  0  0  0  0  0  0  0  0
   -1.3081    1.8461    0.8995 H   0  0  0  0  0  0  0  0  0  0  0  0
   -2.4214    1.4839   -0.4277 H   0  0  0  0  0  0  0  0  0  0  0  0
   -0.1410    2.0028   -1.2266 H   0  0  0  0  0  0  0  0  0  0  0  0
   -0.5971    0.3402   -1.6674 H   0  0  0  0  0  0  0  0  0  0  0  0
    3.1765   -0.5558    0.1372 H   0  0  0  0  0  0  0  0  0  0  0  0
    2.6936   -2.0773   -0.6868 H   0  0  0  0  0  0  0  0  0  0  0  0
    2.1186   -1.7148    0.9705 H   0  0  0  0  0  0  0  0  0  0  0  0
  1  2  1  0  0  0  0
  2  3  1  0  0  0  0
  3  4  1  0  0  0  0
  4  5  1  0  0  0  0
  5  6  2  0  0  0  0
  5  7  1  0  0  0  0
  7  8  1  0  0  0  0
  1  9  1  0  0  0  0
  1 10  1  0  0  0  0
  1 11  1  0  0  0  0
  2 12  1  0  0  0  0
  2 13  1  0  0  0  0
  3 14  1  0  0  0  0
  3 15  1  0  0  0  0
  4 16  1  0  0  0  0
  4 17  1  0  0  0  0
  8 18  1  0  0  0  0
  8 19  1  0  0  0  0
  8 20  1  0  0  0  0
M  END
