 xtb: 6.7.1 (edcfbbe)
          04112512273D

 13 13  0     0  0            999 V2000
   -2.7275    0.1475   -0.0518 C   0  0  0  0  0  0  0  0  0  0  0  0
   -1.2993    0.2055    0.4733 C   0  0  0  0  0  0  0  0  0  0  0  0
   -0.3032   -0.1483   -0.6422 C   0  0  0  0  0  0  0  0  0  0  0  0
    1.0402   -0.0860   -0.0895 N   0  0  0  0  0  0  0  0  0  0  0  0
    1.6173    0.9826   -0.1096 O   0  0  0  0  0  0  0  0  0  0  0  0
    1.5016   -1.0942    0.4064 O   0  0  0  0  0  0  0  0  0  0  0  0
   -2.9642   -0.8505   -0.4099 H   0  0  0  0  0  0  0  0  0  0  0  0
   -3.4215    0.4013    0.7440 H   0  0  0  0  0  0  0  0  0  0  0  0
   -2.8654    0.8522   -0.8670 H   0  0  0  0  0  0  0  0  0  0  0  0
   -1.1772   -0.5001    1.2972 H   0  0  0  0  0  0  0  0  0  0  0  0
   -1.0787    1.2085    0.8430 H   0  0  0  0  0  0  0  0  0  0  0  0
   -0.4824   -1.1644   -0.9943 H   0  0  0  0  0  0  0  0  0  0  0  0
   -0.3757    0.5795   -1.4508 H   0  0  0  0  0  0  0  0  0  0  0  0
  1  2  1  0  0  0  0
  2  3  1  0  0  0  0
  3  4  1  0  0  0  0
  4  5  4  0  0  0  0
  4  6  4  0  0  0  0
  5  6  1  0  0  0  0
  1  7  1  0  0  0  0
  1  8  1  0  0  0  0
  1  9  1  0  0  0  0
  2 10  1  0  0  0  0
  2 11  1  0  0  0  0
  3 12  1  0  0  0  0
  3 13  1  0  0  0  0
M  END
