 xtb: 6.7.1 (edcfbbe)
          04112515593D

 20 19  0     0  0            999 V2000
   -3.4296    0.6351    0.3266 C   0  0  0  0  0  0  0  0  0  0  0  0
   -2.7391   -0.7044    0.0973 C   0  0  0  0  0  0  0  0  0  0  0  0
   -1.3300   -0.5666   -0.4783 C   0  0  0  0  0  0  0  0  0  0  0  0
   -0.3457    0.0674    0.5097 C   0  0  0  0  0  0  0  0  0  0  0  0
    1.0144    0.2175   -0.1155 C   0  0  0  0  0  0  0  0  0  0  0  0
    1.2344    0.7042   -1.2049 O   0  0  0  0  0  0  0  0  0  0  0  0
    1.9749   -0.2519    0.6748 O   0  0  0  0  0  0  0  0  0  0  0  0
    3.3231   -0.1630    0.2049 C   0  0  0  0  0  0  0  0  0  0  0  0
   -4.4593    0.4767    0.6367 H   0  0  0  0  0  0  0  0  0  0  0  0
   -2.9293    1.2086    1.1022 H   0  0  0  0  0  0  0  0  0  0  0  0
   -3.4330    1.2216   -0.5895 H   0  0  0  0  0  0  0  0  0  0  0  0
   -2.6917   -1.2568    1.0375 H   0  0  0  0  0  0  0  0  0  0  0  0
   -3.3348   -1.2923   -0.6035 H   0  0  0  0  0  0  0  0  0  0  0  0
   -1.3553    0.0419   -1.3845 H   0  0  0  0  0  0  0  0  0  0  0  0
   -0.9601   -1.5563   -0.7549 H   0  0  0  0  0  0  0  0  0  0  0  0
   -0.2522   -0.5311    1.4151 H   0  0  0  0  0  0  0  0  0  0  0  0
   -0.6916    1.0677    0.7753 H   0  0  0  0  0  0  0  0  0  0  0  0
    3.5599    0.8691   -0.0559 H   0  0  0  0  0  0  0  0  0  0  0  0
    3.4500   -0.7900   -0.6783 H   0  0  0  0  0  0  0  0  0  0  0  0
    3.9428   -0.5130    1.0241 H   0  0  0  0  0  0  0  0  0  0  0  0
  1  2  1  0  0  0  0
  2  3  1  0  0  0  0
  3  4  1  0  0  0  0
  4  5  1  0  0  0  0
  5  6  2  0  0  0  0
  5  7  1  0  0  0  0
  7  8  1  0  0  0  0
  1  9  1  0  0  0  0
  1 10  1  0  0  0  0
  1 11  1  0  0  0  0
  2 12  1  0  0  0  0
  2 13  1  0  0  0  0
  3 14  1  0  0  0  0
  3 15  1  0  0  0  0
  4 16  1  0  0  0  0
  4 17  1  0  0  0  0
  8 18  1  0  0  0  0
  8 19  1  0  0  0  0
  8 20  1  0  0  0  0
M  END
