 xtb: 6.7.1 (edcfbbe)
          04112512293D

 16 15  0     0  0            999 V2000
    2.0372   -0.6360   -0.1250 C   0  0  0  0  0  0  0  0  0  0  0  0
    1.1144    0.3724    0.5755 C   0  0  0  0  0  0  0  0  0  0  0  0
   -0.0040    0.8953   -0.3296 C   0  0  0  0  0  0  0  0  0  0  0  0
   -1.0774   -0.1478   -0.6473 C   0  0  0  0  0  0  0  0  0  0  0  0
   -1.9708   -0.3341    0.4909 N   0  0  0  0  0  0  0  0  0  0  0  0
    3.0514   -0.2520   -0.1953 H   0  0  0  0  0  0  0  0  0  0  0  0
    2.0754   -1.5801    0.4124 H   0  0  0  0  0  0  0  0  0  0  0  0
    1.6919   -0.8406   -1.1356 H   0  0  0  0  0  0  0  0  0  0  0  0
    0.6712   -0.0793    1.4644 H   0  0  0  0  0  0  0  0  0  0  0  0
    1.7004    1.2271    0.9167 H   0  0  0  0  0  0  0  0  0  0  0  0
   -0.4967    1.7385    0.1563 H   0  0  0  0  0  0  0  0  0  0  0  0
    0.4325    1.2496   -1.2650 H   0  0  0  0  0  0  0  0  0  0  0  0
   -0.5965   -1.0856   -0.9715 H   0  0  0  0  0  0  0  0  0  0  0  0
   -1.6909    0.2143   -1.4776 H   0  0  0  0  0  0  0  0  0  0  0  0
   -1.4446   -0.6896    1.2823 H   0  0  0  0  0  0  0  0  0  0  0  0
   -2.6754   -1.0260    0.2626 H   0  0  0  0  0  0  0  0  0  0  0  0
  1  2  1  0  0  0  0
  2  3  1  0  0  0  0
  3  4  1  0  0  0  0
  4  5  1  0  0  0  0
  1  6  1  0  0  0  0
  1  7  1  0  0  0  0
  1  8  1  0  0  0  0
  2  9  1  0  0  0  0
  2 10  1  0  0  0  0
  3 11  1  0  0  0  0
  3 12  1  0  0  0  0
  4 13  1  0  0  0  0
  4 14  1  0  0  0  0
  5 15  1  0  0  0  0
  5 16  1  0  0  0  0
M  END
