 xtb: 6.7.1 (edcfbbe)
          04112512273D

 13 13  0     0  0            999 V2000
   -2.7418    0.2298   -0.1311 C   0  0  0  0  0  0  0  0  0  0  0  0
   -1.3182    0.4513    0.3632 C   0  0  0  0  0  0  0  0  0  0  0  0
   -0.3381   -0.4393   -0.4021 C   0  0  0  0  0  0  0  0  0  0  0  0
    1.0438   -0.1506   -0.0353 N   0  0  0  0  0  0  0  0  0  0  0  0
    1.3962    1.0090    0.0212 O   0  0  0  0  0  0  0  0  0  0  0  0
    1.7810   -1.0910    0.1871 O   0  0  0  0  0  0  0  0  0  0  0  0
   -3.4303    0.8502    0.4347 H   0  0  0  0  0  0  0  0  0  0  0  0
   -2.8295    0.4901   -1.1824 H   0  0  0  0  0  0  0  0  0  0  0  0
   -3.0335   -0.8094   -0.0049 H   0  0  0  0  0  0  0  0  0  0  0  0
   -1.2603    0.2229    1.4285 H   0  0  0  0  0  0  0  0  0  0  0  0
   -1.0310    1.4946    0.2244 H   0  0  0  0  0  0  0  0  0  0  0  0
   -0.5130   -1.4998   -0.2169 H   0  0  0  0  0  0  0  0  0  0  0  0
   -0.4304   -0.2355   -1.4730 H   0  0  0  0  0  0  0  0  0  0  0  0
  1  2  1  0  0  0  0
  2  3  1  0  0  0  0
  3  4  1  0  0  0  0
  4  5  4  0  0  0  0
  4  6  4  0  0  0  0
  5  6  1  0  0  0  0
  1  7  1  0  0  0  0
  1  8  1  0  0  0  0
  1  9  1  0  0  0  0
  2 10  1  0  0  0  0
  2 11  1  0  0  0  0
  3 12  1  0  0  0  0
  3 13  1  0  0  0  0
M  END
