 xtb: 6.7.1 (edcfbbe)
          04112515593D

 20 19  0     0  0            999 V2000
   -3.2627   -0.8899    0.3360 C   0  0  0  0  0  0  0  0  0  0  0  0
   -1.8710   -0.6241   -0.2250 C   0  0  0  0  0  0  0  0  0  0  0  0
   -1.5013    0.8549   -0.1333 C   0  0  0  0  0  0  0  0  0  0  0  0
   -0.1201    1.1377   -0.7343 C   0  0  0  0  0  0  0  0  0  0  0  0
    0.9574    0.4746    0.0834 C   0  0  0  0  0  0  0  0  0  0  0  0
    1.1480    0.6667    1.2664 O   0  0  0  0  0  0  0  0  0  0  0  0
    1.6772   -0.3662   -0.6503 O   0  0  0  0  0  0  0  0  0  0  0  0
    2.7483   -1.0846   -0.0302 C   0  0  0  0  0  0  0  0  0  0  0  0
   -4.0084   -0.3221   -0.2149 H   0  0  0  0  0  0  0  0  0  0  0  0
   -3.5086   -1.9460    0.2619 H   0  0  0  0  0  0  0  0  0  0  0  0
   -3.3122   -0.5975    1.3823 H   0  0  0  0  0  0  0  0  0  0  0  0
   -1.1366   -1.2136    0.3301 H   0  0  0  0  0  0  0  0  0  0  0  0
   -1.8317   -0.9426   -1.2687 H   0  0  0  0  0  0  0  0  0  0  0  0
   -1.4977    1.1654    0.9136 H   0  0  0  0  0  0  0  0  0  0  0  0
   -2.2458    1.4491   -0.6644 H   0  0  0  0  0  0  0  0  0  0  0  0
    0.0668    2.2124   -0.7169 H   0  0  0  0  0  0  0  0  0  0  0  0
   -0.0569    0.7724   -1.7584 H   0  0  0  0  0  0  0  0  0  0  0  0
    2.7258   -2.0916   -0.4384 H   0  0  0  0  0  0  0  0  0  0  0  0
    2.6098   -1.0962    1.0516 H   0  0  0  0  0  0  0  0  0  0  0  0
    3.6890   -0.5940   -0.2776 H   0  0  0  0  0  0  0  0  0  0  0  0
  1  2  1  0  0  0  0
  2  3  1  0  0  0  0
  3  4  1  0  0  0  0
  4  5  1  0  0  0  0
  5  6  2  0  0  0  0
  5  7  1  0  0  0  0
  7  8  1  0  0  0  0
  1  9  1  0  0  0  0
  1 10  1  0  0  0  0
  1 11  1  0  0  0  0
  2 12  1  0  0  0  0
  2 13  1  0  0  0  0
  3 14  1  0  0  0  0
  3 15  1  0  0  0  0
  4 16  1  0  0  0  0
  4 17  1  0  0  0  0
  8 18  1  0  0  0  0
  8 19  1  0  0  0  0
  8 20  1  0  0  0  0
M  END
