 xtb: 6.7.1 (edcfbbe)
          04112515563D

 33 35  0     0  0            999 V2000
   -4.6265   -1.1477   -0.0881 C   0  0  0  0  0  0  0  0  0  0  0  0
   -3.8387   -2.2892   -0.1418 C   0  0  0  0  0  0  0  0  0  0  0  0
   -2.4606   -2.1804   -0.1263 C   0  0  0  0  0  0  0  0  0  0  0  0
   -1.8450   -0.9323   -0.0573 C   0  0  0  0  0  0  0  0  0  0  0  0
   -2.6409    0.2177   -0.0033 C   0  0  0  0  0  0  0  0  0  0  0  0
   -4.0294    0.0968   -0.0192 C   0  0  0  0  0  0  0  0  0  0  0  0
   -2.0316    1.5518    0.0696 C   0  0  0  0  0  0  0  0  0  0  0  0
   -2.7191    2.5698    0.1199 O   0  0  0  0  0  0  0  0  0  0  0  0
   -0.5596    1.6106    0.0793 C   0  0  0  0  0  0  0  0  0  0  0  0
    0.0183    2.8668    0.1439 C   0  0  0  0  0  0  0  0  0  0  0  0
    1.4042    3.0070    0.1570 C   0  0  0  0  0  0  0  0  0  0  0  0
    2.2081    1.9003    0.1061 C   0  0  0  0  0  0  0  0  0  0  0  0
    1.6617    0.5949    0.0395 C   0  0  0  0  0  0  0  0  0  0  0  0
    0.2407    0.4449    0.0253 C   0  0  0  0  0  0  0  0  0  0  0  0
   -0.3703   -0.8642   -0.0435 C   0  0  0  0  0  0  0  0  0  0  0  0
    0.2813   -1.9232   -0.0914 O   0  0  0  0  0  0  0  0  0  0  0  0
    2.4628   -0.4743   -0.0091 N   0  0  0  0  0  0  0  0  0  0  0  0
    3.9028   -0.4503   -0.0042 C   0  0  0  0  0  0  0  0  0  0  0  0
    4.4479   -1.8764   -0.0618 C   0  0  0  0  0  0  0  0  0  0  0  0
    5.8571   -1.7959   -0.0635 O   0  0  0  0  0  0  0  0  0  0  0  0
   -5.7019   -1.2295   -0.1001 H   0  0  0  0  0  0  0  0  0  0  0  0
   -4.2998   -3.2629   -0.1959 H   0  0  0  0  0  0  0  0  0  0  0  0
   -1.8301   -3.0562   -0.1672 H   0  0  0  0  0  0  0  0  0  0  0  0
   -4.6173    1.0018    0.0237 H   0  0  0  0  0  0  0  0  0  0  0  0
   -0.6315    3.7274    0.1832 H   0  0  0  0  0  0  0  0  0  0  0  0
    1.8405    3.9921    0.2074 H   0  0  0  0  0  0  0  0  0  0  0  0
    3.2788    2.0141    0.1162 H   0  0  0  0  0  0  0  0  0  0  0  0
    1.9929   -1.3759   -0.0580 H   0  0  0  0  0  0  0  0  0  0  0  0
    4.2837    0.0288    0.9047 H   0  0  0  0  0  0  0  0  0  0  0  0
    4.2891    0.1016   -0.8688 H   0  0  0  0  0  0  0  0  0  0  0  0
    4.0866   -2.3696   -0.9738 H   0  0  0  0  0  0  0  0  0  0  0  0
    4.0925   -2.4403    0.8104 H   0  0  0  0  0  0  0  0  0  0  0  0
    6.2318   -2.6861   -0.0958 H   0  0  0  0  0  0  0  0  0  0  0  0
  1  2  4  0  0  0  0
  2  3  4  0  0  0  0
  3  4  4  0  0  0  0
  4  5  4  0  0  0  0
  1  6  4  0  0  0  0
  5  6  4  0  0  0  0
  5  7  1  0  0  0  0
  7  8  2  0  0  0  0
  7  9  1  0  0  0  0
  9 10  4  0  0  0  0
 10 11  4  0  0  0  0
 11 12  2  0  0  0  0
 12 13  4  0  0  0  0
  9 14  4  0  0  0  0
 13 14  4  0  0  0  0
  4 15  1  0  0  0  0
 14 15  1  0  0  0  0
 15 16  2  0  0  0  0
 13 17  4  0  0  0  0
 17 18  1  0  0  0  0
 18 19  1  0  0  0  0
 19 20  1  0  0  0  0
  1 21  1  0  0  0  0
  2 22  1  0  0  0  0
  3 23  1  0  0  0  0
  6 24  1  0  0  0  0
 10 25  1  0  0  0  0
 11 26  1  0  0  0  0
 12 27  1  0  0  0  0
 17 28  1  0  0  0  0
 18 29  1  0  0  0  0
 18 30  1  0  0  0  0
 19 31  1  0  0  0  0
 19 32  1  0  0  0  0
 20 33  1  0  0  0  0
M  END
