 xtb: 6.7.1 (edcfbbe)
          04112515593D

 20 19  0     0  0            999 V2000
   -2.7272   -0.7941    0.3757 C   0  0  0  0  0  0  0  0  0  0  0  0
   -1.8848   -0.3148   -0.8014 C   0  0  0  0  0  0  0  0  0  0  0  0
   -1.2668    1.0664   -0.5785 C   0  0  0  0  0  0  0  0  0  0  0  0
   -0.3191    1.1223    0.6272 C   0  0  0  0  0  0  0  0  0  0  0  0
    0.7890    0.1112    0.4996 C   0  0  0  0  0  0  0  0  0  0  0  0
    0.9806   -0.8143    1.2613 O   0  0  0  0  0  0  0  0  0  0  0  0
    1.5533    0.3453   -0.5615 O   0  0  0  0  0  0  0  0  0  0  0  0
    2.6379   -0.5516   -0.8061 C   0  0  0  0  0  0  0  0  0  0  0  0
   -2.1007   -1.0025    1.2396 H   0  0  0  0  0  0  0  0  0  0  0  0
   -3.4640   -0.0424    0.6485 H   0  0  0  0  0  0  0  0  0  0  0  0
   -3.2507   -1.7102    0.1135 H   0  0  0  0  0  0  0  0  0  0  0  0
   -1.0918   -1.0423   -0.9930 H   0  0  0  0  0  0  0  0  0  0  0  0
   -2.5114   -0.2679   -1.6945 H   0  0  0  0  0  0  0  0  0  0  0  0
   -2.0627    1.7956   -0.4214 H   0  0  0  0  0  0  0  0  0  0  0  0
   -0.7104    1.3530   -1.4723 H   0  0  0  0  0  0  0  0  0  0  0  0
   -0.8544    0.9265    1.5548 H   0  0  0  0  0  0  0  0  0  0  0  0
    0.1335    2.1133    0.6753 H   0  0  0  0  0  0  0  0  0  0  0  0
    3.3656   -0.4854    0.0036 H   0  0  0  0  0  0  0  0  0  0  0  0
    3.0738   -0.2353   -1.7484 H   0  0  0  0  0  0  0  0  0  0  0  0
    2.2703   -1.5769   -0.8675 H   0  0  0  0  0  0  0  0  0  0  0  0
  1  2  1  0  0  0  0
  2  3  1  0  0  0  0
  3  4  1  0  0  0  0
  4  5  1  0  0  0  0
  5  6  2  0  0  0  0
  5  7  1  0  0  0  0
  7  8  1  0  0  0  0
  1  9  1  0  0  0  0
  1 10  1  0  0  0  0
  1 11  1  0  0  0  0
  2 12  1  0  0  0  0
  2 13  1  0  0  0  0
  3 14  1  0  0  0  0
  3 15  1  0  0  0  0
  4 16  1  0  0  0  0
  4 17  1  0  0  0  0
  8 18  1  0  0  0  0
  8 19  1  0  0  0  0
  8 20  1  0  0  0  0
M  END
