 xtb: 6.7.1 (edcfbbe)
          04112515533D

 20 19  0     0  0            999 V2000
   -2.2225   -1.5001   -0.0035 C   0  0  0  0  0  0  0  0  0  0  0  0
   -2.4640    0.0032    0.0601 C   0  0  0  0  0  0  0  0  0  0  0  0
   -1.3522    0.7825   -0.6471 C   0  0  0  0  0  0  0  0  0  0  0  0
   -0.0400    0.6467    0.0826 C   0  0  0  0  0  0  0  0  0  0  0  0
    0.1053    0.7703    1.2808 O   0  0  0  0  0  0  0  0  0  0  0  0
    0.9570    0.3931   -0.7571 O   0  0  0  0  0  0  0  0  0  0  0  0
    2.2832    0.2363   -0.2253 C   0  0  0  0  0  0  0  0  0  0  0  0
    2.5516   -1.2136    0.1484 C   0  0  0  0  0  0  0  0  0  0  0  0
   -1.2913   -1.7551    0.4991 H   0  0  0  0  0  0  0  0  0  0  0  0
   -3.0318   -2.0352    0.4859 H   0  0  0  0  0  0  0  0  0  0  0  0
   -2.1597   -1.8347   -1.0363 H   0  0  0  0  0  0  0  0  0  0  0  0
   -2.5048    0.3233    1.1028 H   0  0  0  0  0  0  0  0  0  0  0  0
   -3.4174    0.2422   -0.4116 H   0  0  0  0  0  0  0  0  0  0  0  0
   -1.6034    1.8450   -0.6598 H   0  0  0  0  0  0  0  0  0  0  0  0
   -1.2167    0.4382   -1.6718 H   0  0  0  0  0  0  0  0  0  0  0  0
    2.9441    0.5681   -1.0266 H   0  0  0  0  0  0  0  0  0  0  0  0
    2.3880    0.8863    0.6487 H   0  0  0  0  0  0  0  0  0  0  0  0
    3.5798   -1.3158    0.4795 H   0  0  0  0  0  0  0  0  0  0  0  0
    1.8894   -1.5194    0.9556 H   0  0  0  0  0  0  0  0  0  0  0  0
    2.3842   -1.8580   -0.7104 H   0  0  0  0  0  0  0  0  0  0  0  0
  1  2  1  0  0  0  0
  2  3  1  0  0  0  0
  3  4  1  0  0  0  0
  4  5  2  0  0  0  0
  4  6  1  0  0  0  0
  6  7  1  0  0  0  0
  7  8  1  0  0  0  0
  1  9  1  0  0  0  0
  1 10  1  0  0  0  0
  1 11  1  0  0  0  0
  2 12  1  0  0  0  0
  2 13  1  0  0  0  0
  3 14  1  0  0  0  0
  3 15  1  0  0  0  0
  7 16  1  0  0  0  0
  7 17  1  0  0  0  0
  8 18  1  0  0  0  0
  8 19  1  0  0  0  0
  8 20  1  0  0  0  0
M  END
