 xtb: 6.7.1 (edcfbbe)
          04112512293D

 21 20  0     0  0            999 V2000
    2.0290    1.2787   -0.3534 C   0  0  0  0  0  0  0  0  0  0  0  0
    1.2026    0.0043   -0.4135 C   0  0  0  0  0  0  0  0  0  0  0  0
    2.0678   -1.2449   -0.3755 C   0  0  0  0  0  0  0  0  0  0  0  0
    0.0237   -0.0285    1.0120 S   0  0  0  0  0  0  0  0  0  0  0  0
   -1.6390   -0.0038    0.2147 C   0  0  0  0  0  0  0  0  0  0  0  0
   -1.8647    1.2798   -0.5668 C   0  0  0  0  0  0  0  0  0  0  0  0
   -1.8787   -1.2551   -0.6138 C   0  0  0  0  0  0  0  0  0  0  0  0
    1.3844    2.1543   -0.3704 H   0  0  0  0  0  0  0  0  0  0  0  0
    2.6144    1.3013    0.5630 H   0  0  0  0  0  0  0  0  0  0  0  0
    2.7061    1.3238   -1.2039 H   0  0  0  0  0  0  0  0  0  0  0  0
    0.5840    0.0020   -1.3115 H   0  0  0  0  0  0  0  0  0  0  0  0
    2.6528   -1.2667    0.5412 H   0  0  0  0  0  0  0  0  0  0  0  0
    2.7468   -1.2536   -1.2257 H   0  0  0  0  0  0  0  0  0  0  0  0
    1.4501   -2.1392   -0.4096 H   0  0  0  0  0  0  0  0  0  0  0  0
   -2.2911   -0.0166    1.0925 H   0  0  0  0  0  0  0  0  0  0  0  0
   -1.2195    1.3261   -1.4416 H   0  0  0  0  0  0  0  0  0  0  0  0
   -2.8985    1.3259   -0.9022 H   0  0  0  0  0  0  0  0  0  0  0  0
   -1.6623    2.1443    0.0612 H   0  0  0  0  0  0  0  0  0  0  0  0
   -1.6869   -2.1443   -0.0178 H   0  0  0  0  0  0  0  0  0  0  0  0
   -1.2327   -1.2770   -1.4891 H   0  0  0  0  0  0  0  0  0  0  0  0
   -2.9124   -1.2768   -0.9517 H   0  0  0  0  0  0  0  0  0  0  0  0
  1  2  1  0  0  0  0
  2  3  1  0  0  0  0
  2  4  1  0  0  0  0
  4  5  1  0  0  0  0
  5  6  1  0  0  0  0
  5  7  1  0  0  0  0
  1  8  1  0  0  0  0
  1  9  1  0  0  0  0
  1 10  1  0  0  0  0
  2 11  1  0  0  0  0
  3 12  1  0  0  0  0
  3 13  1  0  0  0  0
  3 14  1  0  0  0  0
  5 15  1  0  0  0  0
  6 16  1  0  0  0  0
  6 17  1  0  0  0  0
  6 18  1  0  0  0  0
  7 19  1  0  0  0  0
  7 20  1  0  0  0  0
  7 21  1  0  0  0  0
M  END
