 xtb: 6.7.1 (edcfbbe)
          04112515533D

 20 19  0     0  0            999 V2000
   -2.1864   -1.3983    0.9264 C   0  0  0  0  0  0  0  0  0  0  0  0
   -2.1309   -0.5631   -0.3472 C   0  0  0  0  0  0  0  0  0  0  0  0
   -1.5183    0.8262   -0.1293 C   0  0  0  0  0  0  0  0  0  0  0  0
   -0.0106    0.8568   -0.1474 C   0  0  0  0  0  0  0  0  0  0  0  0
    0.6324    1.7356   -0.6883 O   0  0  0  0  0  0  0  0  0  0  0  0
    0.5444   -0.1545    0.5033 O   0  0  0  0  0  0  0  0  0  0  0  0
    1.9781   -0.2411    0.5380 C   0  0  0  0  0  0  0  0  0  0  0  0
    2.5099   -0.9900   -0.6744 C   0  0  0  0  0  0  0  0  0  0  0  0
   -1.1902   -1.5461    1.3315 H   0  0  0  0  0  0  0  0  0  0  0  0
   -2.7969   -0.9028    1.6776 H   0  0  0  0  0  0  0  0  0  0  0  0
   -2.6240   -2.3707    0.7155 H   0  0  0  0  0  0  0  0  0  0  0  0
   -3.1456   -0.4273   -0.7248 H   0  0  0  0  0  0  0  0  0  0  0  0
   -1.5608   -1.0937   -1.1117 H   0  0  0  0  0  0  0  0  0  0  0  0
   -1.8396    1.2179    0.8386 H   0  0  0  0  0  0  0  0  0  0  0  0
   -1.8501    1.5225   -0.9006 H   0  0  0  0  0  0  0  0  0  0  0  0
    2.3887    0.7724    0.5754 H   0  0  0  0  0  0  0  0  0  0  0  0
    2.2005   -0.7746    1.4626 H   0  0  0  0  0  0  0  0  0  0  0  0
    3.5867   -1.0934   -0.5898 H   0  0  0  0  0  0  0  0  0  0  0  0
    2.0581   -1.9766   -0.7340 H   0  0  0  0  0  0  0  0  0  0  0  0
    2.2788   -0.4382   -1.5830 H   0  0  0  0  0  0  0  0  0  0  0  0
  1  2  1  0  0  0  0
  2  3  1  0  0  0  0
  3  4  1  0  0  0  0
  4  5  2  0  0  0  0
  4  6  1  0  0  0  0
  6  7  1  0  0  0  0
  7  8  1  0  0  0  0
  1  9  1  0  0  0  0
  1 10  1  0  0  0  0
  1 11  1  0  0  0  0
  2 12  1  0  0  0  0
  2 13  1  0  0  0  0
  3 14  1  0  0  0  0
  3 15  1  0  0  0  0
  7 16  1  0  0  0  0
  7 17  1  0  0  0  0
  8 18  1  0  0  0  0
  8 19  1  0  0  0  0
  8 20  1  0  0  0  0
M  END
