 xtb: 6.7.1 (edcfbbe)
          04112515593D

 20 19  0     0  0            999 V2000
   -3.4809    0.3900   -0.0792 C   0  0  0  0  0  0  0  0  0  0  0  0
   -2.6004   -0.7134    0.4958 C   0  0  0  0  0  0  0  0  0  0  0  0
   -1.1811   -0.7106   -0.0721 C   0  0  0  0  0  0  0  0  0  0  0  0
   -0.3805    0.5323    0.3467 C   0  0  0  0  0  0  0  0  0  0  0  0
    1.0157    0.4162   -0.1986 C   0  0  0  0  0  0  0  0  0  0  0  0
    1.3854    0.8466   -1.2715 O   0  0  0  0  0  0  0  0  0  0  0  0
    1.8088   -0.2623    0.6234 O   0  0  0  0  0  0  0  0  0  0  0  0
    3.1549   -0.4987    0.2033 C   0  0  0  0  0  0  0  0  0  0  0  0
   -3.1233    1.3722    0.2167 H   0  0  0  0  0  0  0  0  0  0  0  0
   -3.4923    0.3394   -1.1655 H   0  0  0  0  0  0  0  0  0  0  0  0
   -4.5009    0.2798    0.2800 H   0  0  0  0  0  0  0  0  0  0  0  0
   -2.5541   -0.6148    1.5817 H   0  0  0  0  0  0  0  0  0  0  0  0
   -3.0527   -1.6806    0.2684 H   0  0  0  0  0  0  0  0  0  0  0  0
   -1.2221   -0.7553   -1.1627 H   0  0  0  0  0  0  0  0  0  0  0  0
   -0.6538   -1.5983    0.2835 H   0  0  0  0  0  0  0  0  0  0  0  0
   -0.3356    0.5895    1.4335 H   0  0  0  0  0  0  0  0  0  0  0  0
   -0.8377    1.4303   -0.0648 H   0  0  0  0  0  0  0  0  0  0  0  0
    3.7079    0.4412    0.1863 H   0  0  0  0  0  0  0  0  0  0  0  0
    3.1633   -0.9336   -0.7969 H   0  0  0  0  0  0  0  0  0  0  0  0
    3.5748   -1.1833    0.9334 H   0  0  0  0  0  0  0  0  0  0  0  0
  1  2  1  0  0  0  0
  2  3  1  0  0  0  0
  3  4  1  0  0  0  0
  4  5  1  0  0  0  0
  5  6  2  0  0  0  0
  5  7  1  0  0  0  0
  7  8  1  0  0  0  0
  1  9  1  0  0  0  0
  1 10  1  0  0  0  0
  1 11  1  0  0  0  0
  2 12  1  0  0  0  0
  2 13  1  0  0  0  0
  3 14  1  0  0  0  0
  3 15  1  0  0  0  0
  4 16  1  0  0  0  0
  4 17  1  0  0  0  0
  8 18  1  0  0  0  0
  8 19  1  0  0  0  0
  8 20  1  0  0  0  0
M  END
