 xtb: 6.7.1 (edcfbbe)
          04112515593D

 20 19  0     0  0            999 V2000
   -3.6769   -0.8443   -0.1331 C   0  0  0  0  0  0  0  0  0  0  0  0
   -2.6434    0.1012    0.4675 C   0  0  0  0  0  0  0  0  0  0  0  0
   -1.2522   -0.1565   -0.1067 C   0  0  0  0  0  0  0  0  0  0  0  0
   -0.2077    0.7927    0.4990 C   0  0  0  0  0  0  0  0  0  0  0  0
    1.1313    0.5086   -0.1255 C   0  0  0  0  0  0  0  0  0  0  0  0
    1.5537    1.0390   -1.1323 O   0  0  0  0  0  0  0  0  0  0  0  0
    1.7829   -0.4360    0.5404 O   0  0  0  0  0  0  0  0  0  0  0  0
    3.0539   -0.8804    0.0556 C   0  0  0  0  0  0  0  0  0  0  0  0
   -4.6604   -0.6477    0.2855 H   0  0  0  0  0  0  0  0  0  0  0  0
   -3.7298   -0.7155   -1.2116 H   0  0  0  0  0  0  0  0  0  0  0  0
   -3.4142   -1.8787    0.0755 H   0  0  0  0  0  0  0  0  0  0  0  0
   -2.9324    1.1336    0.2629 H   0  0  0  0  0  0  0  0  0  0  0  0
   -2.6157   -0.0303    1.5506 H   0  0  0  0  0  0  0  0  0  0  0  0
   -1.2713   -0.0197   -1.1903 H   0  0  0  0  0  0  0  0  0  0  0  0
   -0.9580   -1.1879    0.0983 H   0  0  0  0  0  0  0  0  0  0  0  0
   -0.1427    0.6320    1.5741 H   0  0  0  0  0  0  0  0  0  0  0  0
   -0.4814    1.8256    0.2864 H   0  0  0  0  0  0  0  0  0  0  0  0
    3.8258   -0.5131    0.7303 H   0  0  0  0  0  0  0  0  0  0  0  0
    3.2215   -0.4964   -0.9511 H   0  0  0  0  0  0  0  0  0  0  0  0
    3.0342   -1.9677    0.0584 H   0  0  0  0  0  0  0  0  0  0  0  0
  1  2  1  0  0  0  0
  2  3  1  0  0  0  0
  3  4  1  0  0  0  0
  4  5  1  0  0  0  0
  5  6  2  0  0  0  0
  5  7  1  0  0  0  0
  7  8  1  0  0  0  0
  1  9  1  0  0  0  0
  1 10  1  0  0  0  0
  1 11  1  0  0  0  0
  2 12  1  0  0  0  0
  2 13  1  0  0  0  0
  3 14  1  0  0  0  0
  3 15  1  0  0  0  0
  4 16  1  0  0  0  0
  4 17  1  0  0  0  0
  8 18  1  0  0  0  0
  8 19  1  0  0  0  0
  8 20  1  0  0  0  0
M  END
