 xtb: 6.7.1 (edcfbbe)
          04112515593D

 20 19  0     0  0            999 V2000
   -3.3003   -0.8682    0.2744 C   0  0  0  0  0  0  0  0  0  0  0  0
   -1.8982   -0.6001   -0.2590 C   0  0  0  0  0  0  0  0  0  0  0  0
   -1.5043    0.8662   -0.0934 C   0  0  0  0  0  0  0  0  0  0  0  0
   -0.1157    1.1530   -0.6726 C   0  0  0  0  0  0  0  0  0  0  0  0
    0.9509    0.4336    0.1107 C   0  0  0  0  0  0  0  0  0  0  0  0
    1.0997    0.4993    1.3129 O   0  0  0  0  0  0  0  0  0  0  0  0
    1.7346   -0.2927   -0.6796 O   0  0  0  0  0  0  0  0  0  0  0  0
    2.8042   -1.0230   -0.0729 C   0  0  0  0  0  0  0  0  0  0  0  0
   -4.0306   -0.2645   -0.2590 H   0  0  0  0  0  0  0  0  0  0  0  0
   -3.5619   -1.9158    0.1507 H   0  0  0  0  0  0  0  0  0  0  0  0
   -3.3573   -0.6216    1.3320 H   0  0  0  0  0  0  0  0  0  0  0  0
   -1.1795   -1.2269    0.2757 H   0  0  0  0  0  0  0  0  0  0  0  0
   -1.8526   -0.8702   -1.3162 H   0  0  0  0  0  0  0  0  0  0  0  0
   -1.5012    1.1240    0.9677 H   0  0  0  0  0  0  0  0  0  0  0  0
   -2.2359    1.4982   -0.5981 H   0  0  0  0  0  0  0  0  0  0  0  0
    0.0915    2.2221   -0.6012 H   0  0  0  0  0  0  0  0  0  0  0  0
   -0.0516    0.8420   -1.7146 H   0  0  0  0  0  0  0  0  0  0  0  0
    3.4554   -1.3248   -0.8871 H   0  0  0  0  0  0  0  0  0  0  0  0
    2.4063   -1.8938    0.4491 H   0  0  0  0  0  0  0  0  0  0  0  0
    3.3312   -0.3892    0.6413 H   0  0  0  0  0  0  0  0  0  0  0  0
  1  2  1  0  0  0  0
  2  3  1  0  0  0  0
  3  4  1  0  0  0  0
  4  5  1  0  0  0  0
  5  6  2  0  0  0  0
  5  7  1  0  0  0  0
  7  8  1  0  0  0  0
  1  9  1  0  0  0  0
  1 10  1  0  0  0  0
  1 11  1  0  0  0  0
  2 12  1  0  0  0  0
  2 13  1  0  0  0  0
  3 14  1  0  0  0  0
  3 15  1  0  0  0  0
  4 16  1  0  0  0  0
  4 17  1  0  0  0  0
  8 18  1  0  0  0  0
  8 19  1  0  0  0  0
  8 20  1  0  0  0  0
M  END
