 xtb: 6.7.1 (edcfbbe)
          04112512273D

 13 13  0     0  0            999 V2000
   -1.9905    0.6620   -0.5493 C   0  0  0  0  0  0  0  0  0  0  0  0
   -1.4903   -0.5844    0.1709 C   0  0  0  0  0  0  0  0  0  0  0  0
   -0.2172   -0.3015    0.9747 C   0  0  0  0  0  0  0  0  0  0  0  0
    0.8884   -0.0188    0.0663 N   0  0  0  0  0  0  0  0  0  0  0  0
    1.4277    1.0673    0.1375 O   0  0  0  0  0  0  0  0  0  0  0  0
    1.2114   -0.8815   -0.7244 O   0  0  0  0  0  0  0  0  0  0  0  0
   -2.9045    0.4391   -1.0920 H   0  0  0  0  0  0  0  0  0  0  0  0
   -2.1976    1.4594    0.1601 H   0  0  0  0  0  0  0  0  0  0  0  0
   -1.2532    1.0234   -1.2641 H   0  0  0  0  0  0  0  0  0  0  0  0
   -1.2798   -1.3751   -0.5512 H   0  0  0  0  0  0  0  0  0  0  0  0
   -2.2537   -0.9420    0.8605 H   0  0  0  0  0  0  0  0  0  0  0  0
   -0.3380    0.5639    1.6269 H   0  0  0  0  0  0  0  0  0  0  0  0
    0.0547   -1.1884    1.5505 H   0  0  0  0  0  0  0  0  0  0  0  0
  1  2  1  0  0  0  0
  2  3  1  0  0  0  0
  3  4  1  0  0  0  0
  4  5  4  0  0  0  0
  4  6  4  0  0  0  0
  5  6  1  0  0  0  0
  1  7  1  0  0  0  0
  1  8  1  0  0  0  0
  1  9  1  0  0  0  0
  2 10  1  0  0  0  0
  2 11  1  0  0  0  0
  3 12  1  0  0  0  0
  3 13  1  0  0  0  0
M  END
