 xtb: 6.7.1 (edcfbbe)
          04112515533D

 20 19  0     0  0            999 V2000
   -2.4004   -0.9020    0.9913 C   0  0  0  0  0  0  0  0  0  0  0  0
   -2.0464   -0.7460   -0.4827 C   0  0  0  0  0  0  0  0  0  0  0  0
   -1.4344    0.6288   -0.7762 C   0  0  0  0  0  0  0  0  0  0  0  0
   -0.1164    0.8108   -0.0685 C   0  0  0  0  0  0  0  0  0  0  0  0
    0.1301    1.6985    0.7239 O   0  0  0  0  0  0  0  0  0  0  0  0
    0.7667   -0.1141   -0.4143 O   0  0  0  0  0  0  0  0  0  0  0  0
    2.0681   -0.0563    0.1915 C   0  0  0  0  0  0  0  0  0  0  0  0
    2.8575   -1.2679   -0.2646 C   0  0  0  0  0  0  0  0  0  0  0  0
   -1.5147   -0.7859    1.6135 H   0  0  0  0  0  0  0  0  0  0  0  0
   -3.1235   -0.1475    1.2923 H   0  0  0  0  0  0  0  0  0  0  0  0
   -2.8265   -1.8840    1.1782 H   0  0  0  0  0  0  0  0  0  0  0  0
   -2.9471   -0.8603   -1.0866 H   0  0  0  0  0  0  0  0  0  0  0  0
   -1.3358   -1.5191   -0.7769 H   0  0  0  0  0  0  0  0  0  0  0  0
   -2.1032    1.4267   -0.4533 H   0  0  0  0  0  0  0  0  0  0  0  0
   -1.2502    0.7224   -1.8473 H   0  0  0  0  0  0  0  0  0  0  0  0
    2.5483    0.8795   -0.1134 H   0  0  0  0  0  0  0  0  0  0  0  0
    1.9445   -0.0347    1.2795 H   0  0  0  0  0  0  0  0  0  0  0  0
    2.9403   -1.2704   -1.3473 H   0  0  0  0  0  0  0  0  0  0  0  0
    3.8504   -1.2342    0.1714 H   0  0  0  0  0  0  0  0  0  0  0  0
    2.3583   -2.1793    0.0511 H   0  0  0  0  0  0  0  0  0  0  0  0
  1  2  1  0  0  0  0
  2  3  1  0  0  0  0
  3  4  1  0  0  0  0
  4  5  2  0  0  0  0
  4  6  1  0  0  0  0
  6  7  1  0  0  0  0
  7  8  1  0  0  0  0
  1  9  1  0  0  0  0
  1 10  1  0  0  0  0
  1 11  1  0  0  0  0
  2 12  1  0  0  0  0
  2 13  1  0  0  0  0
  3 14  1  0  0  0  0
  3 15  1  0  0  0  0
  7 16  1  0  0  0  0
  7 17  1  0  0  0  0
  8 18  1  0  0  0  0
  8 19  1  0  0  0  0
  8 20  1  0  0  0  0
M  END
