 xtb: 6.7.1 (edcfbbe)
          04112515543D

 17 16  0     0  0            999 V2000
    2.7578   -0.9676   -0.1158 C   0  0  0  0  0  0  0  0  0  0  0  0
    2.3156    0.3050    0.5983 C   0  0  0  0  0  0  0  0  0  0  0  0
    1.3945    1.1850   -0.2493 C   0  0  0  0  0  0  0  0  0  0  0  0
    0.0799    0.5244   -0.6753 C   0  0  0  0  0  0  0  0  0  0  0  0
   -0.7871    0.1590    0.5166 C   0  0  0  0  0  0  0  0  0  0  0  0
   -2.3839   -0.4623   -0.0350 Cl  0  0  0  0  0  0  0  0  0  0  0  0
    1.9183   -1.6370   -0.2829 H   0  0  0  0  0  0  0  0  0  0  0  0
    3.4956   -1.4966    0.4825 H   0  0  0  0  0  0  0  0  0  0  0  0
    3.2051   -0.7277   -1.0777 H   0  0  0  0  0  0  0  0  0  0  0  0
    1.8224    0.0454    1.5360 H   0  0  0  0  0  0  0  0  0  0  0  0
    3.2014    0.8926    0.8492 H   0  0  0  0  0  0  0  0  0  0  0  0
    1.9289    1.4795   -1.1544 H   0  0  0  0  0  0  0  0  0  0  0  0
    1.1663    2.0935    0.3117 H   0  0  0  0  0  0  0  0  0  0  0  0
    0.2821   -0.3687   -1.2667 H   0  0  0  0  0  0  0  0  0  0  0  0
   -0.4694    1.2231   -1.3092 H   0  0  0  0  0  0  0  0  0  0  0  0
   -0.3502   -0.6379    1.1141 H   0  0  0  0  0  0  0  0  0  0  0  0
   -0.9968    1.0267    1.1401 H   0  0  0  0  0  0  0  0  0  0  0  0
  1  2  1  0  0  0  0
  2  3  1  0  0  0  0
  3  4  1  0  0  0  0
  4  5  1  0  0  0  0
  5  6  1  0  0  0  0
  1  7  1  0  0  0  0
  1  8  1  0  0  0  0
  1  9  1  0  0  0  0
  2 10  1  0  0  0  0
  2 11  1  0  0  0  0
  3 12  1  0  0  0  0
  3 13  1  0  0  0  0
  4 14  1  0  0  0  0
  4 15  1  0  0  0  0
  5 16  1  0  0  0  0
  5 17  1  0  0  0  0
M  END
