 xtb: 6.7.1 (edcfbbe)
          04112515533D

 20 19  0     0  0            999 V2000
   -2.4209   -0.8688    1.0000 C   0  0  0  0  0  0  0  0  0  0  0  0
   -2.0511   -0.7520   -0.4736 C   0  0  0  0  0  0  0  0  0  0  0  0
   -1.4268    0.6112   -0.7953 C   0  0  0  0  0  0  0  0  0  0  0  0
   -0.1162    0.8004   -0.0759 C   0  0  0  0  0  0  0  0  0  0  0  0
    0.1214    1.6925    0.7141 O   0  0  0  0  0  0  0  0  0  0  0  0
    0.7711   -0.1260   -0.4069 O   0  0  0  0  0  0  0  0  0  0  0  0
    2.0654   -0.0641    0.2134 C   0  0  0  0  0  0  0  0  0  0  0  0
    2.8823   -1.2439   -0.2763 C   0  0  0  0  0  0  0  0  0  0  0  0
   -3.1410   -0.1015    1.2749 H   0  0  0  0  0  0  0  0  0  0  0  0
   -2.8567   -1.8426    1.2067 H   0  0  0  0  0  0  0  0  0  0  0  0
   -1.5408   -0.7440    1.6284 H   0  0  0  0  0  0  0  0  0  0  0  0
   -2.9462   -0.8757   -1.0838 H   0  0  0  0  0  0  0  0  0  0  0  0
   -1.3426   -1.5368   -0.7411 H   0  0  0  0  0  0  0  0  0  0  0  0
   -2.0941    1.4207   -0.4996 H   0  0  0  0  0  0  0  0  0  0  0  0
   -1.2298    0.6757   -1.8661 H   0  0  0  0  0  0  0  0  0  0  0  0
    2.5301    0.8910   -0.0530 H   0  0  0  0  0  0  0  0  0  0  0  0
    1.9310   -0.0837    1.3002 H   0  0  0  0  0  0  0  0  0  0  0  0
    2.3971   -2.1749    0.0015 H   0  0  0  0  0  0  0  0  0  0  0  0
    2.9763   -1.2067   -1.3575 H   0  0  0  0  0  0  0  0  0  0  0  0
    3.8698   -1.2072    0.1714 H   0  0  0  0  0  0  0  0  0  0  0  0
  1  2  1  0  0  0  0
  2  3  1  0  0  0  0
  3  4  1  0  0  0  0
  4  5  2  0  0  0  0
  4  6  1  0  0  0  0
  6  7  1  0  0  0  0
  7  8  1  0  0  0  0
  1  9  1  0  0  0  0
  1 10  1  0  0  0  0
  1 11  1  0  0  0  0
  2 12  1  0  0  0  0
  2 13  1  0  0  0  0
  3 14  1  0  0  0  0
  3 15  1  0  0  0  0
  7 16  1  0  0  0  0
  7 17  1  0  0  0  0
  8 18  1  0  0  0  0
  8 19  1  0  0  0  0
  8 20  1  0  0  0  0
M  END
