 xtb: 6.7.1 (edcfbbe)
          04112515533D

 20 19  0     0  0            999 V2000
   -3.3558   -1.0051    0.3792 C   0  0  0  0  0  0  0  0  0  0  0  0
   -1.8513   -0.7902    0.4943 C   0  0  0  0  0  0  0  0  0  0  0  0
   -1.4023    0.3978   -0.3515 C   0  0  0  0  0  0  0  0  0  0  0  0
    0.0757    0.6855   -0.3005 C   0  0  0  0  0  0  0  0  0  0  0  0
    0.6057    1.5786   -0.9336 O   0  0  0  0  0  0  0  0  0  0  0  0
    0.7357   -0.1242    0.5133 O   0  0  0  0  0  0  0  0  0  0  0  0
    2.1580    0.0398    0.6384 C   0  0  0  0  0  0  0  0  0  0  0  0
    2.8961   -0.7614   -0.4232 C   0  0  0  0  0  0  0  0  0  0  0  0
   -3.6628   -1.8538    0.9840 H   0  0  0  0  0  0  0  0  0  0  0  0
   -3.8951   -0.1254    0.7219 H   0  0  0  0  0  0  0  0  0  0  0  0
   -3.6362   -1.1989   -0.6532 H   0  0  0  0  0  0  0  0  0  0  0  0
   -1.3253   -1.6872    0.1654 H   0  0  0  0  0  0  0  0  0  0  0  0
   -1.5825   -0.6139    1.5366 H   0  0  0  0  0  0  0  0  0  0  0  0
   -1.9144    1.3100   -0.0347 H   0  0  0  0  0  0  0  0  0  0  0  0
   -1.6612    0.2433   -1.4018 H   0  0  0  0  0  0  0  0  0  0  0  0
    2.3964    1.1043    0.5524 H   0  0  0  0  0  0  0  0  0  0  0  0
    2.3890   -0.3220    1.6407 H   0  0  0  0  0  0  0  0  0  0  0  0
    3.9656   -0.6672   -0.2659 H   0  0  0  0  0  0  0  0  0  0  0  0
    2.6151   -1.8094   -0.3644 H   0  0  0  0  0  0  0  0  0  0  0  0
    2.6502   -0.3827   -1.4128 H   0  0  0  0  0  0  0  0  0  0  0  0
  1  2  1  0  0  0  0
  2  3  1  0  0  0  0
  3  4  1  0  0  0  0
  4  5  2  0  0  0  0
  4  6  1  0  0  0  0
  6  7  1  0  0  0  0
  7  8  1  0  0  0  0
  1  9  1  0  0  0  0
  1 10  1  0  0  0  0
  1 11  1  0  0  0  0
  2 12  1  0  0  0  0
  2 13  1  0  0  0  0
  3 14  1  0  0  0  0
  3 15  1  0  0  0  0
  7 16  1  0  0  0  0
  7 17  1  0  0  0  0
  8 18  1  0  0  0  0
  8 19  1  0  0  0  0
  8 20  1  0  0  0  0
M  END
