 xtb: 6.7.1 (edcfbbe)
          04112515593D

 20 19  0     0  0            999 V2000
   -3.1246   -1.1240    0.0293 C   0  0  0  0  0  0  0  0  0  0  0  0
   -1.9382   -0.2774    0.4747 C   0  0  0  0  0  0  0  0  0  0  0  0
   -1.3552    0.5275   -0.6851 C   0  0  0  0  0  0  0  0  0  0  0  0
   -0.1647    1.3882   -0.2460 C   0  0  0  0  0  0  0  0  0  0  0  0
    0.9792    0.5333    0.2347 C   0  0  0  0  0  0  0  0  0  0  0  0
    1.4343    0.5544    1.3603 O   0  0  0  0  0  0  0  0  0  0  0  0
    1.4354   -0.2548   -0.7300 O   0  0  0  0  0  0  0  0  0  0  0  0
    2.5166   -1.1481   -0.4496 C   0  0  0  0  0  0  0  0  0  0  0  0
   -3.9131   -0.4905   -0.3695 H   0  0  0  0  0  0  0  0  0  0  0  0
   -2.8225   -1.8252   -0.7450 H   0  0  0  0  0  0  0  0  0  0  0  0
   -3.5261   -1.6881    0.8670 H   0  0  0  0  0  0  0  0  0  0  0  0
   -2.2535    0.4062    1.2659 H   0  0  0  0  0  0  0  0  0  0  0  0
   -1.1632   -0.9241    0.8948 H   0  0  0  0  0  0  0  0  0  0  0  0
   -2.1266    1.1820   -1.0929 H   0  0  0  0  0  0  0  0  0  0  0  0
   -1.0306   -0.1511   -1.4755 H   0  0  0  0  0  0  0  0  0  0  0  0
   -0.4516    2.0566    0.5657 H   0  0  0  0  0  0  0  0  0  0  0  0
    0.1887    1.9755   -1.0941 H   0  0  0  0  0  0  0  0  0  0  0  0
    2.1934   -2.1498   -0.7255 H   0  0  0  0  0  0  0  0  0  0  0  0
    2.7698   -1.1028    0.6103 H   0  0  0  0  0  0  0  0  0  0  0  0
    3.3687   -0.8451   -1.0556 H   0  0  0  0  0  0  0  0  0  0  0  0
  1  2  1  0  0  0  0
  2  3  1  0  0  0  0
  3  4  1  0  0  0  0
  4  5  1  0  0  0  0
  5  6  2  0  0  0  0
  5  7  1  0  0  0  0
  7  8  1  0  0  0  0
  1  9  1  0  0  0  0
  1 10  1  0  0  0  0
  1 11  1  0  0  0  0
  2 12  1  0  0  0  0
  2 13  1  0  0  0  0
  3 14  1  0  0  0  0
  3 15  1  0  0  0  0
  4 16  1  0  0  0  0
  4 17  1  0  0  0  0
  8 18  1  0  0  0  0
  8 19  1  0  0  0  0
  8 20  1  0  0  0  0
M  END
