 xtb: 6.7.1 (edcfbbe)
          04112512293D

 16 15  0     0  0            999 V2000
    1.6460   -0.7754   -0.5135 C   0  0  0  0  0  0  0  0  0  0  0  0
    1.3674    0.5524    0.1826 C   0  0  0  0  0  0  0  0  0  0  0  0
   -0.0066    0.6286    0.8520 C   0  0  0  0  0  0  0  0  0  0  0  0
   -1.1979    0.5412   -0.1234 C   0  0  0  0  0  0  0  0  0  0  0  0
   -1.7378   -0.7891   -0.3612 N   0  0  0  0  0  0  0  0  0  0  0  0
    1.4984   -1.6067    0.1732 H   0  0  0  0  0  0  0  0  0  0  0  0
    0.9952   -0.9075   -1.3746 H   0  0  0  0  0  0  0  0  0  0  0  0
    2.6747   -0.8040   -0.8657 H   0  0  0  0  0  0  0  0  0  0  0  0
    2.1292    0.7151    0.9493 H   0  0  0  0  0  0  0  0  0  0  0  0
    1.4533    1.3641   -0.5435 H   0  0  0  0  0  0  0  0  0  0  0  0
   -0.0950   -0.1707    1.5935 H   0  0  0  0  0  0  0  0  0  0  0  0
   -0.0663    1.5780    1.3879 H   0  0  0  0  0  0  0  0  0  0  0  0
   -0.9098    0.9594   -1.0915 H   0  0  0  0  0  0  0  0  0  0  0  0
   -2.0234    1.1444    0.2651 H   0  0  0  0  0  0  0  0  0  0  0  0
   -2.0451   -1.1915    0.5181 H   0  0  0  0  0  0  0  0  0  0  0  0
   -1.0172   -1.3978   -0.7330 H   0  0  0  0  0  0  0  0  0  0  0  0
  1  2  1  0  0  0  0
  2  3  1  0  0  0  0
  3  4  1  0  0  0  0
  4  5  1  0  0  0  0
  1  6  1  0  0  0  0
  1  7  1  0  0  0  0
  1  8  1  0  0  0  0
  2  9  1  0  0  0  0
  2 10  1  0  0  0  0
  3 11  1  0  0  0  0
  3 12  1  0  0  0  0
  4 13  1  0  0  0  0
  4 14  1  0  0  0  0
  5 15  1  0  0  0  0
  5 16  1  0  0  0  0
M  END
