 xtb: 6.7.1 (edcfbbe)
          04112512263D

 13 12  0     0  0            999 V2000
    2.1667    0.5665    0.0557 C   0  0  0  0  0  0  0  0  0  0  0  0
    1.2318   -0.3429    0.2546 C   0  0  0  0  0  0  0  0  0  0  0  0
    0.0000   -0.4897   -0.5872 C   0  0  0  0  0  0  0  0  0  0  0  0
   -1.2316   -0.3426    0.2549 C   0  0  0  0  0  0  0  0  0  0  0  0
   -2.1670    0.5662    0.0556 C   0  0  0  0  0  0  0  0  0  0  0  0
    3.0356    0.6395    0.6872 H   0  0  0  0  0  0  0  0  0  0  0  0
    2.1042    1.2754   -0.7536 H   0  0  0  0  0  0  0  0  0  0  0  0
    1.3150   -1.0419    1.0769 H   0  0  0  0  0  0  0  0  0  0  0  0
   -0.0002   -1.4905   -1.0318 H   0  0  0  0  0  0  0  0  0  0  0  0
    0.0000    0.2494   -1.3891 H   0  0  0  0  0  0  0  0  0  0  0  0
   -1.3144   -1.0411    1.0776 H   0  0  0  0  0  0  0  0  0  0  0  0
   -3.0357    0.6392    0.6872 H   0  0  0  0  0  0  0  0  0  0  0  0
   -2.1050    1.2746   -0.7542 H   0  0  0  0  0  0  0  0  0  0  0  0
  1  2  2  0  0  0  0
  2  3  1  0  0  0  0
  3  4  1  0  0  0  0
  4  5  2  0  0  0  0
  1  6  1  0  0  0  0
  1  7  1  0  0  0  0
  2  8  1  0  0  0  0
  3  9  1  0  0  0  0
  3 10  1  0  0  0  0
  4 11  1  0  0  0  0
  5 12  1  0  0  0  0
  5 13  1  0  0  0  0
M  END
