 xtb: 6.7.1 (edcfbbe)
          04112515563D

 33 35  0     0  0            999 V2000
   -4.5371   -1.0400    0.3456 C   0  0  0  0  0  0  0  0  0  0  0  0
   -3.8429   -2.2209    0.1213 C   0  0  0  0  0  0  0  0  0  0  0  0
   -2.4801   -2.1901   -0.1086 C   0  0  0  0  0  0  0  0  0  0  0  0
   -1.7854   -0.9822   -0.1134 C   0  0  0  0  0  0  0  0  0  0  0  0
   -2.4867    0.2068    0.1149 C   0  0  0  0  0  0  0  0  0  0  0  0
   -3.8616    0.1655    0.3404 C   0  0  0  0  0  0  0  0  0  0  0  0
   -1.7897    1.4985    0.1191 C   0  0  0  0  0  0  0  0  0  0  0  0
   -2.3964    2.5552    0.2865 O   0  0  0  0  0  0  0  0  0  0  0  0
   -0.3298    1.4666   -0.0741 C   0  0  0  0  0  0  0  0  0  0  0  0
    0.3369    2.6758    0.0172 C   0  0  0  0  0  0  0  0  0  0  0  0
    1.7190    2.7305   -0.1406 C   0  0  0  0  0  0  0  0  0  0  0  0
    2.4276    1.5871   -0.3904 C   0  0  0  0  0  0  0  0  0  0  0  0
    1.7927    0.3265   -0.4982 C   0  0  0  0  0  0  0  0  0  0  0  0
    0.3736    0.2651   -0.3306 C   0  0  0  0  0  0  0  0  0  0  0  0
   -0.3326   -0.9966   -0.3775 C   0  0  0  0  0  0  0  0  0  0  0  0
    0.2189   -2.0861   -0.6182 O   0  0  0  0  0  0  0  0  0  0  0  0
    2.4862   -0.7799   -0.8068 N   0  0  0  0  0  0  0  0  0  0  0  0
    3.9085   -0.9745   -0.6913 C   0  0  0  0  0  0  0  0  0  0  0  0
    4.3051   -1.3824    0.7413 C   0  0  0  0  0  0  0  0  0  0  0  0
    4.0888   -0.3615    1.6879 O   0  0  0  0  0  0  0  0  0  0  0  0
   -5.6008   -1.0611    0.5236 H   0  0  0  0  0  0  0  0  0  0  0  0
   -4.3655   -3.1647    0.1246 H   0  0  0  0  0  0  0  0  0  0  0  0
   -1.9233   -3.0976   -0.2893 H   0  0  0  0  0  0  0  0  0  0  0  0
   -4.3754    1.1001    0.5108 H   0  0  0  0  0  0  0  0  0  0  0  0
   -0.2407    3.5659    0.2141 H   0  0  0  0  0  0  0  0  0  0  0  0
    2.2278    3.6789   -0.0679 H   0  0  0  0  0  0  0  0  0  0  0  0
    3.4939    1.6513   -0.5213 H   0  0  0  0  0  0  0  0  0  0  0  0
    1.9259   -1.6318   -0.8084 H   0  0  0  0  0  0  0  0  0  0  0  0
    4.4458   -0.0731   -0.9870 H   0  0  0  0  0  0  0  0  0  0  0  0
    4.1878   -1.7834   -1.3678 H   0  0  0  0  0  0  0  0  0  0  0  0
    5.3518   -1.7069    0.7474 H   0  0  0  0  0  0  0  0  0  0  0  0
    3.6772   -2.2168    1.0637 H   0  0  0  0  0  0  0  0  0  0  0  0
    4.7465    0.3364    1.5638 H   0  0  0  0  0  0  0  0  0  0  0  0
  1  2  4  0  0  0  0
  2  3  4  0  0  0  0
  3  4  4  0  0  0  0
  4  5  4  0  0  0  0
  1  6  4  0  0  0  0
  5  6  4  0  0  0  0
  5  7  1  0  0  0  0
  7  8  2  0  0  0  0
  7  9  1  0  0  0  0
  9 10  4  0  0  0  0
 10 11  4  0  0  0  0
 11 12  2  0  0  0  0
 12 13  4  0  0  0  0
  9 14  4  0  0  0  0
 13 14  4  0  0  0  0
  4 15  1  0  0  0  0
 14 15  1  0  0  0  0
 15 16  2  0  0  0  0
 13 17  4  0  0  0  0
 17 18  1  0  0  0  0
 18 19  1  0  0  0  0
 19 20  1  0  0  0  0
  1 21  1  0  0  0  0
  2 22  1  0  0  0  0
  3 23  1  0  0  0  0
  6 24  1  0  0  0  0
 10 25  1  0  0  0  0
 11 26  1  0  0  0  0
 12 27  1  0  0  0  0
 17 28  1  0  0  0  0
 18 29  1  0  0  0  0
 18 30  1  0  0  0  0
 19 31  1  0  0  0  0
 19 32  1  0  0  0  0
 20 33  1  0  0  0  0
M  END
