 xtb: 6.7.1 (edcfbbe)
          04112515533D

 20 19  0     0  0            999 V2000
   -2.3076   -1.0378    0.9342 C   0  0  0  0  0  0  0  0  0  0  0  0
   -2.0263   -0.7123   -0.5277 C   0  0  0  0  0  0  0  0  0  0  0  0
   -1.4609    0.7025   -0.6935 C   0  0  0  0  0  0  0  0  0  0  0  0
   -0.1160    0.8503   -0.0291 C   0  0  0  0  0  0  0  0  0  0  0  0
    0.1529    1.6876    0.8096 O   0  0  0  0  0  0  0  0  0  0  0  0
    0.7587   -0.0405   -0.4711 O   0  0  0  0  0  0  0  0  0  0  0  0
    2.0849   -0.0229    0.0813 C   0  0  0  0  0  0  0  0  0  0  0  0
    2.7384   -1.3624   -0.2006 C   0  0  0  0  0  0  0  0  0  0  0  0
   -1.3966   -0.9654    1.5258 H   0  0  0  0  0  0  0  0  0  0  0  0
   -3.0331   -0.3410    1.3477 H   0  0  0  0  0  0  0  0  0  0  0  0
   -2.7018   -2.0458    1.0304 H   0  0  0  0  0  0  0  0  0  0  0  0
   -2.9512   -0.7855   -1.1007 H   0  0  0  0  0  0  0  0  0  0  0  0
   -1.3125   -1.4287   -0.9356 H   0  0  0  0  0  0  0  0  0  0  0  0
   -2.1329    1.4422   -0.2579 H   0  0  0  0  0  0  0  0  0  0  0  0
   -1.3283    0.9191   -1.7546 H   0  0  0  0  0  0  0  0  0  0  0  0
    2.6365    0.7986   -0.3873 H   0  0  0  0  0  0  0  0  0  0  0  0
    2.0128    0.1808    1.1548 H   0  0  0  0  0  0  0  0  0  0  0  0
    3.7515   -1.3558    0.1877 H   0  0  0  0  0  0  0  0  0  0  0  0
    2.1782   -2.1616    0.2762 H   0  0  0  0  0  0  0  0  0  0  0  0
    2.7650   -1.5431   -1.2711 H   0  0  0  0  0  0  0  0  0  0  0  0
  1  2  1  0  0  0  0
  2  3  1  0  0  0  0
  3  4  1  0  0  0  0
  4  5  2  0  0  0  0
  4  6  1  0  0  0  0
  6  7  1  0  0  0  0
  7  8  1  0  0  0  0
  1  9  1  0  0  0  0
  1 10  1  0  0  0  0
  1 11  1  0  0  0  0
  2 12  1  0  0  0  0
  2 13  1  0  0  0  0
  3 14  1  0  0  0  0
  3 15  1  0  0  0  0
  7 16  1  0  0  0  0
  7 17  1  0  0  0  0
  8 18  1  0  0  0  0
  8 19  1  0  0  0  0
  8 20  1  0  0  0  0
M  END
