 xtb: 6.7.1 (edcfbbe)
          04112515563D

 33 35  0     0  0            999 V2000
   -4.6976   -0.9960   -0.2473 C   0  0  0  0  0  0  0  0  0  0  0  0
   -3.9992   -2.1878   -0.1115 C   0  0  0  0  0  0  0  0  0  0  0  0
   -2.6241   -2.1722    0.0307 C   0  0  0  0  0  0  0  0  0  0  0  0
   -1.9223   -0.9685    0.0387 C   0  0  0  0  0  0  0  0  0  0  0  0
   -2.6281    0.2320   -0.0989 C   0  0  0  0  0  0  0  0  0  0  0  0
   -4.0144    0.2054   -0.2405 C   0  0  0  0  0  0  0  0  0  0  0  0
   -1.9249    1.5208   -0.0966 C   0  0  0  0  0  0  0  0  0  0  0  0
   -2.5316    2.5837   -0.2131 O   0  0  0  0  0  0  0  0  0  0  0  0
   -0.4591    1.4787    0.0481 C   0  0  0  0  0  0  0  0  0  0  0  0
    0.2058    2.6925    0.0254 C   0  0  0  0  0  0  0  0  0  0  0  0
    1.5919    2.7382    0.1484 C   0  0  0  0  0  0  0  0  0  0  0  0
    2.3083    1.5811    0.2966 C   0  0  0  0  0  0  0  0  0  0  0  0
    1.6725    0.3161    0.3361 C   0  0  0  0  0  0  0  0  0  0  0  0
    0.2504    0.2637    0.2002 C   0  0  0  0  0  0  0  0  0  0  0  0
   -0.4549   -1.0004    0.1987 C   0  0  0  0  0  0  0  0  0  0  0  0
    0.1110   -2.1014    0.3182 O   0  0  0  0  0  0  0  0  0  0  0  0
    2.3799   -0.8074    0.5200 N   0  0  0  0  0  0  0  0  0  0  0  0
    3.8123   -0.9166    0.5727 C   0  0  0  0  0  0  0  0  0  0  0  0
    4.4539   -0.8970   -0.8244 C   0  0  0  0  0  0  0  0  0  0  0  0
    5.8523   -0.9717   -0.6529 O   0  0  0  0  0  0  0  0  0  0  0  0
   -5.7704   -1.0052   -0.3579 H   0  0  0  0  0  0  0  0  0  0  0  0
   -4.5277   -3.1282   -0.1161 H   0  0  0  0  0  0  0  0  0  0  0  0
   -2.0629   -3.0885    0.1390 H   0  0  0  0  0  0  0  0  0  0  0  0
   -4.5315    1.1478   -0.3441 H   0  0  0  0  0  0  0  0  0  0  0  0
   -0.3762    3.5935   -0.0924 H   0  0  0  0  0  0  0  0  0  0  0  0
    2.0994    3.6898    0.1245 H   0  0  0  0  0  0  0  0  0  0  0  0
    3.3799    1.6317    0.3883 H   0  0  0  0  0  0  0  0  0  0  0  0
    1.8383   -1.6686    0.4795 H   0  0  0  0  0  0  0  0  0  0  0  0
    4.0660   -1.8618    1.0537 H   0  0  0  0  0  0  0  0  0  0  0  0
    4.2483   -0.1122    1.1692 H   0  0  0  0  0  0  0  0  0  0  0  0
    4.1744    0.0282   -1.3460 H   0  0  0  0  0  0  0  0  0  0  0  0
    4.0837   -1.7511   -1.4055 H   0  0  0  0  0  0  0  0  0  0  0  0
    6.2839   -1.0081   -1.5166 H   0  0  0  0  0  0  0  0  0  0  0  0
  1  2  4  0  0  0  0
  2  3  4  0  0  0  0
  3  4  4  0  0  0  0
  4  5  4  0  0  0  0
  1  6  4  0  0  0  0
  5  6  4  0  0  0  0
  5  7  1  0  0  0  0
  7  8  2  0  0  0  0
  7  9  1  0  0  0  0
  9 10  4  0  0  0  0
 10 11  4  0  0  0  0
 11 12  2  0  0  0  0
 12 13  4  0  0  0  0
  9 14  4  0  0  0  0
 13 14  4  0  0  0  0
  4 15  1  0  0  0  0
 14 15  1  0  0  0  0
 15 16  2  0  0  0  0
 13 17  4  0  0  0  0
 17 18  1  0  0  0  0
 18 19  1  0  0  0  0
 19 20  1  0  0  0  0
  1 21  1  0  0  0  0
  2 22  1  0  0  0  0
  3 23  1  0  0  0  0
  6 24  1  0  0  0  0
 10 25  1  0  0  0  0
 11 26  1  0  0  0  0
 12 27  1  0  0  0  0
 17 28  1  0  0  0  0
 18 29  1  0  0  0  0
 18 30  1  0  0  0  0
 19 31  1  0  0  0  0
 19 32  1  0  0  0  0
 20 33  1  0  0  0  0
M  END
