 xtb: 6.7.1 (edcfbbe)
          04112515533D

 20 19  0     0  0            999 V2000
   -2.8124   -1.1231   -0.1092 C   0  0  0  0  0  0  0  0  0  0  0  0
   -2.5221    0.3718   -0.0476 C   0  0  0  0  0  0  0  0  0  0  0  0
   -1.2201    0.6633    0.6985 C   0  0  0  0  0  0  0  0  0  0  0  0
   -0.0095    0.2045   -0.0741 C   0  0  0  0  0  0  0  0  0  0  0  0
    0.0943    0.2110   -1.2824 O   0  0  0  0  0  0  0  0  0  0  0  0
    0.9540   -0.2064    0.7442 O   0  0  0  0  0  0  0  0  0  0  0  0
    2.2069   -0.6216    0.1747 C   0  0  0  0  0  0  0  0  0  0  0  0
    3.1324    0.5661   -0.0408 C   0  0  0  0  0  0  0  0  0  0  0  0
   -2.0162   -1.6400   -0.6415 H   0  0  0  0  0  0  0  0  0  0  0  0
   -2.8875   -1.5408    0.8920 H   0  0  0  0  0  0  0  0  0  0  0  0
   -3.7472   -1.3064   -0.6320 H   0  0  0  0  0  0  0  0  0  0  0  0
   -3.3417    0.8833    0.4575 H   0  0  0  0  0  0  0  0  0  0  0  0
   -2.4398    0.7681   -1.0612 H   0  0  0  0  0  0  0  0  0  0  0  0
   -1.2048    0.1872    1.6787 H   0  0  0  0  0  0  0  0  0  0  0  0
   -1.1083    1.7410    0.8393 H   0  0  0  0  0  0  0  0  0  0  0  0
    2.6204   -1.3208    0.9019 H   0  0  0  0  0  0  0  0  0  0  0  0
    2.0075   -1.1314   -0.7728 H   0  0  0  0  0  0  0  0  0  0  0  0
    3.2803    1.0996    0.8942 H   0  0  0  0  0  0  0  0  0  0  0  0
    4.0903    0.2135   -0.4087 H   0  0  0  0  0  0  0  0  0  0  0  0
    2.7017    1.2456   -0.7729 H   0  0  0  0  0  0  0  0  0  0  0  0
  1  2  1  0  0  0  0
  2  3  1  0  0  0  0
  3  4  1  0  0  0  0
  4  5  2  0  0  0  0
  4  6  1  0  0  0  0
  6  7  1  0  0  0  0
  7  8  1  0  0  0  0
  1  9  1  0  0  0  0
  1 10  1  0  0  0  0
  1 11  1  0  0  0  0
  2 12  1  0  0  0  0
  2 13  1  0  0  0  0
  3 14  1  0  0  0  0
  3 15  1  0  0  0  0
  7 16  1  0  0  0  0
  7 17  1  0  0  0  0
  8 18  1  0  0  0  0
  8 19  1  0  0  0  0
  8 20  1  0  0  0  0
M  END
