 xtb: 6.7.1 (edcfbbe)
          04112515533D

 20 19  0     0  0            999 V2000
   -3.3679   -0.9887    0.3851 C   0  0  0  0  0  0  0  0  0  0  0  0
   -1.8710   -0.7468    0.5404 C   0  0  0  0  0  0  0  0  0  0  0  0
   -1.3931    0.3499   -0.4068 C   0  0  0  0  0  0  0  0  0  0  0  0
    0.0775    0.6644   -0.3160 C   0  0  0  0  0  0  0  0  0  0  0  0
    0.6059    1.5763   -0.9228 O   0  0  0  0  0  0  0  0  0  0  0  0
    0.7342   -0.1496    0.4966 O   0  0  0  0  0  0  0  0  0  0  0  0
    2.1506    0.0353    0.6538 C   0  0  0  0  0  0  0  0  0  0  0  0
    2.9244   -0.7218   -0.4147 C   0  0  0  0  0  0  0  0  0  0  0  0
   -3.6960   -1.7701    1.0648 H   0  0  0  0  0  0  0  0  0  0  0  0
   -3.9266   -0.0827    0.6070 H   0  0  0  0  0  0  0  0  0  0  0  0
   -3.6019   -1.2960   -0.6312 H   0  0  0  0  0  0  0  0  0  0  0  0
   -1.3254   -1.6678    0.3322 H   0  0  0  0  0  0  0  0  0  0  0  0
   -1.6492   -0.4575    1.5686 H   0  0  0  0  0  0  0  0  0  0  0  0
   -1.9323    1.2825   -0.2243 H   0  0  0  0  0  0  0  0  0  0  0  0
   -1.5930    0.0710   -1.4447 H   0  0  0  0  0  0  0  0  0  0  0  0
    2.3714    1.1059    0.6026 H   0  0  0  0  0  0  0  0  0  0  0  0
    2.3684   -0.3507    1.6500 H   0  0  0  0  0  0  0  0  0  0  0  0
    2.6940   -0.3172   -1.3978 H   0  0  0  0  0  0  0  0  0  0  0  0
    3.9885   -0.6157   -0.2310 H   0  0  0  0  0  0  0  0  0  0  0  0
    2.6594   -1.7754   -0.3936 H   0  0  0  0  0  0  0  0  0  0  0  0
  1  2  1  0  0  0  0
  2  3  1  0  0  0  0
  3  4  1  0  0  0  0
  4  5  2  0  0  0  0
  4  6  1  0  0  0  0
  6  7  1  0  0  0  0
  7  8  1  0  0  0  0
  1  9  1  0  0  0  0
  1 10  1  0  0  0  0
  1 11  1  0  0  0  0
  2 12  1  0  0  0  0
  2 13  1  0  0  0  0
  3 14  1  0  0  0  0
  3 15  1  0  0  0  0
  7 16  1  0  0  0  0
  7 17  1  0  0  0  0
  8 18  1  0  0  0  0
  8 19  1  0  0  0  0
  8 20  1  0  0  0  0
M  END
