 xtb: 6.7.1 (edcfbbe)
          04112515533D

 20 19  0     0  0            999 V2000
   -3.5871   -0.7821    0.2767 C   0  0  0  0  0  0  0  0  0  0  0  0
   -2.2910   -0.0099    0.4846 C   0  0  0  0  0  0  0  0  0  0  0  0
   -1.2083   -0.4618   -0.5028 C   0  0  0  0  0  0  0  0  0  0  0  0
    0.0288    0.3817   -0.3466 C   0  0  0  0  0  0  0  0  0  0  0  0
    0.0690    1.5884   -0.4801 O   0  0  0  0  0  0  0  0  0  0  0  0
    1.0883   -0.3472   -0.0288 O   0  0  0  0  0  0  0  0  0  0  0  0
    2.3416    0.3328    0.1602 C   0  0  0  0  0  0  0  0  0  0  0  0
    3.4130   -0.7109    0.4087 C   0  0  0  0  0  0  0  0  0  0  0  0
   -4.3368   -0.4548    0.9918 H   0  0  0  0  0  0  0  0  0  0  0  0
   -3.9722   -0.6180   -0.7263 H   0  0  0  0  0  0  0  0  0  0  0  0
   -3.4208   -1.8475    0.4135 H   0  0  0  0  0  0  0  0  0  0  0  0
   -1.9319   -0.1617    1.5045 H   0  0  0  0  0  0  0  0  0  0  0  0
   -2.4638    1.0593    0.3470 H   0  0  0  0  0  0  0  0  0  0  0  0
   -1.5786   -0.3308   -1.5211 H   0  0  0  0  0  0  0  0  0  0  0  0
   -0.9451   -1.5064   -0.3423 H   0  0  0  0  0  0  0  0  0  0  0  0
    2.5500    0.9282   -0.7348 H   0  0  0  0  0  0  0  0  0  0  0  0
    2.2366    1.0180    1.0077 H   0  0  0  0  0  0  0  0  0  0  0  0
    3.4856   -1.3799   -0.4436 H   0  0  0  0  0  0  0  0  0  0  0  0
    4.3672   -0.2173    0.5598 H   0  0  0  0  0  0  0  0  0  0  0  0
    3.1660   -1.2935    1.2912 H   0  0  0  0  0  0  0  0  0  0  0  0
  1  2  1  0  0  0  0
  2  3  1  0  0  0  0
  3  4  1  0  0  0  0
  4  5  2  0  0  0  0
  4  6  1  0  0  0  0
  6  7  1  0  0  0  0
  7  8  1  0  0  0  0
  1  9  1  0  0  0  0
  1 10  1  0  0  0  0
  1 11  1  0  0  0  0
  2 12  1  0  0  0  0
  2 13  1  0  0  0  0
  3 14  1  0  0  0  0
  3 15  1  0  0  0  0
  7 16  1  0  0  0  0
  7 17  1  0  0  0  0
  8 18  1  0  0  0  0
  8 19  1  0  0  0  0
  8 20  1  0  0  0  0
M  END
