 xtb: 6.7.1 (edcfbbe)
          04112513313D

 31 32  0     0  0            999 V2000
   -3.9180    0.1836    1.8504 C   0  0  0  0  0  0  0  0  0  0  0  0
   -3.3305    0.4442    0.4654 C   0  0  0  0  0  0  0  0  0  0  0  0
   -3.5993    1.4419    0.1119 H   0  0  0  0  0  0  0  0  0  0  0  0
   -1.8248    0.3003    0.4078 C   0  0  0  0  0  0  0  0  0  0  0  0
   -1.1606   -0.7110    1.0916 C   0  0  0  0  0  0  0  0  0  0  0  0
    0.2122   -0.8366    1.0055 C   0  0  0  0  0  0  0  0  0  0  0  0
    0.9807    0.0340    0.2334 C   0  0  0  0  0  0  0  0  0  0  0  0
    0.2871    1.0256   -0.4526 C   0  0  0  0  0  0  0  0  0  0  0  0
   -1.0833    1.1680   -0.3836 C   0  0  0  0  0  0  0  0  0  0  0  0
    0.9662    1.8921   -1.2616 F   0  0  0  0  0  0  0  0  0  0  0  0
    2.4426   -0.1112    0.1532 C   0  0  0  0  0  0  0  0  0  0  0  0
    3.0087   -1.3750   -0.0010 C   0  0  0  0  0  0  0  0  0  0  0  0
    4.3811   -1.5242   -0.0714 C   0  0  0  0  0  0  0  0  0  0  0  0
    5.2075   -0.4157    0.0164 C   0  0  0  0  0  0  0  0  0  0  0  0
    4.6533    0.8435    0.1736 C   0  0  0  0  0  0  0  0  0  0  0  0
    3.2806    0.9975    0.2407 C   0  0  0  0  0  0  0  0  0  0  0  0
   -3.8495   -0.5589   -0.5505 C   0  0  0  0  0  0  0  0  0  0  0  0
   -4.0973   -1.7192   -0.3132 O   0  0  0  0  0  0  0  0  0  0  0  0
   -3.9584   -0.0286   -1.7564 O   0  0  0  0  0  0  0  0  0  0  0  0
   -3.3384    0.7048    2.6061 H   0  0  0  0  0  0  0  0  0  0  0  0
   -4.9458    0.5340    1.8878 H   0  0  0  0  0  0  0  0  0  0  0  0
   -3.9169   -0.8816    2.0657 H   0  0  0  0  0  0  0  0  0  0  0  0
   -1.7195   -1.4095    1.6921 H   0  0  0  0  0  0  0  0  0  0  0  0
    0.7128   -1.6162    1.5578 H   0  0  0  0  0  0  0  0  0  0  0  0
   -1.5581    1.9518   -0.9525 H   0  0  0  0  0  0  0  0  0  0  0  0
    2.3661   -2.2384   -0.0862 H   0  0  0  0  0  0  0  0  0  0  0  0
    4.8076   -2.5080   -0.1969 H   0  0  0  0  0  0  0  0  0  0  0  0
    6.2790   -0.5327   -0.0385 H   0  0  0  0  0  0  0  0  0  0  0  0
    5.2919    1.7111    0.2449 H   0  0  0  0  0  0  0  0  0  0  0  0
    2.8570    1.9819    0.3729 H   0  0  0  0  0  0  0  0  0  0  0  0
   -4.2476   -0.6713   -2.4336 H   0  0  0  0  0  0  0  0  0  0  0  0
  1  2  1  0  0  0  0
  2  3  1  0  0  0  0
  2  4  1  0  0  0  0
  4  5  4  0  0  0  0
  5  6  4  0  0  0  0
  6  7  4  0  0  0  0
  7  8  4  0  0  0  0
  4  9  4  0  0  0  0
  8  9  4  0  0  0  0
  8 10  1  0  0  0  0
  7 11  1  0  0  0  0
 11 12  4  0  0  0  0
 12 13  4  0  0  0  0
 13 14  4  0  0  0  0
 14 15  4  0  0  0  0
 11 16  4  0  0  0  0
 15 16  4  0  0  0  0
  2 17  1  0  0  0  0
 17 18  2  0  0  0  0
 17 19  1  0  0  0  0
  1 20  1  0  0  0  0
  1 21  1  0  0  0  0
  1 22  1  0  0  0  0
  5 23  1  0  0  0  0
  6 24  1  0  0  0  0
  9 25  1  0  0  0  0
 12 26  1  0  0  0  0
 13 27  1  0  0  0  0
 14 28  1  0  0  0  0
 15 29  1  0  0  0  0
 16 30  1  0  0  0  0
 19 31  1  0  0  0  0
M  END
