 xtb: 6.7.1 (edcfbbe)
          04112515553D

 17 16  0     0  0            999 V2000
    1.2362   -1.6943    0.5174 C   0  0  0  0  0  0  0  0  0  0  0  0
    0.8980   -0.9153   -0.6374 O   0  0  0  0  0  0  0  0  0  0  0  0
   -0.0950    0.0199   -0.4335 C   0  0  0  0  0  0  0  0  0  0  0  0
    0.2827    1.0267    0.4604 O   0  0  0  0  0  0  0  0  0  0  0  0
    1.2949    1.8928   -0.0385 C   0  0  0  0  0  0  0  0  0  0  0  0
   -1.2309   -0.5970    0.0546 O   0  0  0  0  0  0  0  0  0  0  0  0
   -2.3925    0.2276    0.0613 C   0  0  0  0  0  0  0  0  0  0  0  0
    0.4143   -2.3652    0.7682 H   0  0  0  0  0  0  0  0  0  0  0  0
    1.4497   -1.0390    1.3636 H   0  0  0  0  0  0  0  0  0  0  0  0
    2.1201   -2.2548    0.2290 H   0  0  0  0  0  0  0  0  0  0  0  0
   -0.2772    0.4630   -1.4377 H   0  0  0  0  0  0  0  0  0  0  0  0
    1.5045    2.5867    0.7699 H   0  0  0  0  0  0  0  0  0  0  0  0
    0.9307    2.4286   -0.9197 H   0  0  0  0  0  0  0  0  0  0  0  0
    2.1911    1.3269   -0.3011 H   0  0  0  0  0  0  0  0  0  0  0  0
   -2.6246    0.5591   -0.9546 H   0  0  0  0  0  0  0  0  0  0  0  0
   -2.2429    1.0919    0.7103 H   0  0  0  0  0  0  0  0  0  0  0  0
   -3.1868   -0.4051    0.4456 H   0  0  0  0  0  0  0  0  0  0  0  0
  1  2  1  0  0  0  0
  2  3  1  0  0  0  0
  3  4  1  0  0  0  0
  4  5  1  0  0  0  0
  3  6  1  0  0  0  0
  6  7  1  0  0  0  0
  1  8  1  0  0  0  0
  1  9  1  0  0  0  0
  1 10  1  0  0  0  0
  3 11  1  0  0  0  0
  5 12  1  0  0  0  0
  5 13  1  0  0  0  0
  5 14  1  0  0  0  0
  7 15  1  0  0  0  0
  7 16  1  0  0  0  0
  7 17  1  0  0  0  0
M  END
