 xtb: 6.7.1 (edcfbbe)
          04112512263D

 11 10  0     0  0            999 V2000
   -0.0003    1.3105    0.0007 C   0  0  0  0  0  0  0  0  0  0  0  0
   -0.9330    0.4728   -0.8565 C   0  0  0  0  0  0  0  0  0  0  0  0
   -2.0864   -0.4613    0.1633 Cl  0  0  0  0  0  0  0  0  0  0  0  0
    0.9325    0.4715    0.8566 C   0  0  0  0  0  0  0  0  0  0  0  0
    2.0868   -0.4608   -0.1637 Cl  0  0  0  0  0  0  0  0  0  0  0  0
    0.5844    1.9473   -0.6646 H   0  0  0  0  0  0  0  0  0  0  0  0
   -0.5852    1.9460    0.6671 H   0  0  0  0  0  0  0  0  0  0  0  0
   -1.5415    1.0982   -1.5055 H   0  0  0  0  0  0  0  0  0  0  0  0
   -0.3809   -0.2598   -1.4428 H   0  0  0  0  0  0  0  0  0  0  0  0
    0.3809   -0.2622    1.4419 H   0  0  0  0  0  0  0  0  0  0  0  0
    1.5405    1.0958    1.5067 H   0  0  0  0  0  0  0  0  0  0  0  0
  1  2  1  0  0  0  0
  2  3  1  0  0  0  0
  1  4  1  0  0  0  0
  4  5  1  0  0  0  0
  1  6  1  0  0  0  0
  1  7  1  0  0  0  0
  2  8  1  0  0  0  0
  2  9  1  0  0  0  0
  4 10  1  0  0  0  0
  4 11  1  0  0  0  0
M  END
