 xtb: 6.7.1 (edcfbbe)
          04112515543D

 17 16  0     0  0            999 V2000
    3.3565   -0.7472   -0.1695 C   0  0  0  0  0  0  0  0  0  0  0  0
    2.3471    0.2652    0.3586 C   0  0  0  0  0  0  0  0  0  0  0  0
    0.9714    0.0742   -0.2759 C   0  0  0  0  0  0  0  0  0  0  0  0
   -0.0436    1.0872    0.2497 C   0  0  0  0  0  0  0  0  0  0  0  0
   -1.4154    0.9247   -0.3787 C   0  0  0  0  0  0  0  0  0  0  0  0
   -2.1701   -0.6394    0.0985 Cl  0  0  0  0  0  0  0  0  0  0  0  0
    4.3274   -0.5982    0.2965 H   0  0  0  0  0  0  0  0  0  0  0  0
    3.4721   -0.6442   -1.2460 H   0  0  0  0  0  0  0  0  0  0  0  0
    3.0253   -1.7613    0.0431 H   0  0  0  0  0  0  0  0  0  0  0  0
    2.2622    0.1605    1.4424 H   0  0  0  0  0  0  0  0  0  0  0  0
    2.7038    1.2759    0.1495 H   0  0  0  0  0  0  0  0  0  0  0  0
    0.6143   -0.9361   -0.0653 H   0  0  0  0  0  0  0  0  0  0  0  0
    1.0566    0.1768   -1.3600 H   0  0  0  0  0  0  0  0  0  0  0  0
    0.3016    2.0983    0.0232 H   0  0  0  0  0  0  0  0  0  0  0  0
   -0.1263    0.9936    1.3340 H   0  0  0  0  0  0  0  0  0  0  0  0
   -2.1035    1.6990   -0.0452 H   0  0  0  0  0  0  0  0  0  0  0  0
   -1.3595    0.9107   -1.4658 H   0  0  0  0  0  0  0  0  0  0  0  0
  1  2  1  0  0  0  0
  2  3  1  0  0  0  0
  3  4  1  0  0  0  0
  4  5  1  0  0  0  0
  5  6  1  0  0  0  0
  1  7  1  0  0  0  0
  1  8  1  0  0  0  0
  1  9  1  0  0  0  0
  2 10  1  0  0  0  0
  2 11  1  0  0  0  0
  3 12  1  0  0  0  0
  3 13  1  0  0  0  0
  4 14  1  0  0  0  0
  4 15  1  0  0  0  0
  5 16  1  0  0  0  0
  5 17  1  0  0  0  0
M  END
