 xtb: 6.7.1 (edcfbbe)
          04112515533D

 20 19  0     0  0            999 V2000
   -2.4571   -1.2646    0.5601 C   0  0  0  0  0  0  0  0  0  0  0  0
   -2.5443    0.0890   -0.1347 C   0  0  0  0  0  0  0  0  0  0  0  0
   -1.2847    0.3850   -0.9509 C   0  0  0  0  0  0  0  0  0  0  0  0
   -0.0856    0.6029   -0.0632 C   0  0  0  0  0  0  0  0  0  0  0  0
   -0.0920    1.2298    0.9763 O   0  0  0  0  0  0  0  0  0  0  0  0
    0.9983    0.0292   -0.5678 O   0  0  0  0  0  0  0  0  0  0  0  0
    2.2455    0.1459    0.1388 C   0  0  0  0  0  0  0  0  0  0  0  0
    3.0343   -1.1371   -0.0505 C   0  0  0  0  0  0  0  0  0  0  0  0
   -2.3146   -2.0601   -0.1675 H   0  0  0  0  0  0  0  0  0  0  0  0
   -1.6208   -1.2782    1.2564 H   0  0  0  0  0  0  0  0  0  0  0  0
   -3.3684   -1.4638    1.1175 H   0  0  0  0  0  0  0  0  0  0  0  0
   -2.6683    0.8753    0.6122 H   0  0  0  0  0  0  0  0  0  0  0  0
   -3.4081    0.1051   -0.7995 H   0  0  0  0  0  0  0  0  0  0  0  0
   -1.4261    1.3055   -1.5215 H   0  0  0  0  0  0  0  0  0  0  0  0
   -1.0596   -0.4247   -1.6443 H   0  0  0  0  0  0  0  0  0  0  0  0
    2.7807    1.0042   -0.2785 H   0  0  0  0  0  0  0  0  0  0  0  0
    2.0298    0.3426    1.1939 H   0  0  0  0  0  0  0  0  0  0  0  0
    3.1916   -1.3208   -1.1092 H   0  0  0  0  0  0  0  0  0  0  0  0
    3.9953   -1.0432    0.4445 H   0  0  0  0  0  0  0  0  0  0  0  0
    2.4942   -1.9783    0.3749 H   0  0  0  0  0  0  0  0  0  0  0  0
  1  2  1  0  0  0  0
  2  3  1  0  0  0  0
  3  4  1  0  0  0  0
  4  5  2  0  0  0  0
  4  6  1  0  0  0  0
  6  7  1  0  0  0  0
  7  8  1  0  0  0  0
  1  9  1  0  0  0  0
  1 10  1  0  0  0  0
  1 11  1  0  0  0  0
  2 12  1  0  0  0  0
  2 13  1  0  0  0  0
  3 14  1  0  0  0  0
  3 15  1  0  0  0  0
  7 16  1  0  0  0  0
  7 17  1  0  0  0  0
  8 18  1  0  0  0  0
  8 19  1  0  0  0  0
  8 20  1  0  0  0  0
M  END
